
  EPA STORM WATER MANAGEMENT MODEL - VERSION 5.1 (Build 5.3.0.dev0)
  --------------------------------------------------------------

  WARNING 04: minimum elevation drop used for Conduit Link_01776
  WARNING 04: minimum elevation drop used for Conduit Link_01779
  WARNING 04: minimum elevation drop used for Conduit Link_07234
  WARNING 02: maximum depth increased for Node Node_06087
  
  *********************************************************
  NOTE: The summary statistics displayed in this report are
  based on results found at every computational time step,  
  not just on results from each reporting time step.
  *********************************************************
  
  ****************
  Analysis Options
  ****************
  Flow Units ............... CMS
  Process Models:
    Rainfall/Runoff ........ YES
    RDII ................... NO
    Snowmelt ............... NO
    Groundwater ............ NO
    Flow Routing ........... YES
    Ponding Allowed ........ YES
    Water Quality .......... YES
  Infiltration Method ...... HORTON
  Flow Routing Method ...... DYNWAVE
  Surcharge Method ......... EXTRAN
  Starting Date ............ 01/02/2011 00:00:00
  Ending Date .............. 01/02/2011 06:00:00
  Antecedent Dry Days ...... 0.0
  Report Time Step ......... 00:15:00
  Wet Time Step ............ 00:05:00
  Dry Time Step ............ 01:00:00
  Routing Time Step ........ 60.00 sec
  Variable Time Step ....... YES
  Maximum Trials ........... 8
  Number of Threads ........ 4
  Head Tolerance ........... 0.001500 m
  
  
  **************************        Volume         Depth
  Runoff Quantity Continuity     hectare-m            mm
  **************************     ---------       -------
  Total Precipitation ......         1.144        40.000
  Evaporation Loss .........         0.000         0.000
  Infiltration Loss ........         0.051         1.781
  Surface Runoff ...........         1.102        38.540
  Final Storage ............         0.000         0.009
  Continuity Error (%) .....        -0.826
  
  
  **************************           COD
  Runoff Quality Continuity             kg
  **************************    ----------
  Initial Buildup ..........         0.000
  Surface Buildup ..........         0.000
  Wet Deposition ...........      3008.738
  Sweeping Removal .........         0.000
  Infiltration Loss ........       133.992
  BMP Removal ..............         0.000
  Surface Runoff ...........      2898.894
  Remaining Buildup ........         0.706
  Continuity Error (%) .....        -0.826
  
  
  **************************        Volume        Volume
  Flow Routing Continuity        hectare-m      10^6 ltr
  **************************     ---------     ---------
  Dry Weather Inflow .......         0.153         1.529
  Wet Weather Inflow .......         1.102        11.022
  Groundwater Inflow .......         0.000         0.000
  RDII Inflow ..............         0.000         0.000
  External Inflow ..........         0.000         0.000
  External Outflow .........         0.844         8.442
  Flooding Loss ............         0.593         5.928
  Evaporation Loss .........         0.000         0.000
  Exfiltration Loss ........         0.000         0.000
  Initial Stored Volume ....         0.077         0.773
  Final Stored Volume ......         0.135         1.351
  Continuity Error (%) .....       -17.981
  
  
  **************************           COD
  Quality Routing Continuity            kg
  **************************    ----------
  Dry Weather Inflow .......       845.606
  Wet Weather Inflow .......      2898.884
  Groundwater Inflow .......         0.000
  RDII Inflow ..............         0.000
  External Inflow ..........         0.000
  External Outflow .........      2455.596
  Flooding Loss ............      1511.295
  Exfiltration Loss ........         0.000
  Mass Reacted .............         0.000
  Initial Stored Mass ......       427.257
  Final Stored Mass ........       272.160
  Continuity Error (%) .....        -1.613
  
  
  *************************
  Highest Continuity Errors
  *************************
  Node Node_07272 (-70.08%)
  Node Node_04713 (-49.72%)
  Node Node_04715 (-45.12%)
  Node Tank_LaoDongLu (-23.71%)
  Node Node_04714 (-14.18%)
  
  
  ***************************
  Time-Step Critical Elements
  ***************************
  Link Link_01778 (64.81%)
  Link Link_02129 (22.92%)
  Link Link_07234 (1.64%)
  Link Link_05464 (1.32%)
  Link Link_01780 (1.27%)
  
  
  ********************************
  Highest Flow Instability Indexes
  ********************************
  Link Link_01558 (78)
  Link Link_01778 (73)
  Link Link_01802 (71)
  Link Link_01810 (70)
  Link Link_01336 (67)
  
  
  *************************
  Routing Time Step Summary
  *************************
  Minimum Time Step           :     5.00 sec
  Average Time Step           :     5.00 sec
  Maximum Time Step           :     5.00 sec
  Percent in Steady State     :     0.00
  Average Iterations per Step :     7.16
  Percent Not Converging      :    69.24
  
  
  ***************************
  Subcatchment Runoff Summary
  ***************************
  
  ------------------------------------------------------------------------------------------------------------------------------
                            Total      Total      Total      Total     Imperv       Perv      Total       Total     Peak  Runoff
                           Precip      Runon       Evap      Infil     Runoff     Runoff     Runoff      Runoff   Runoff   Coeff
  Subcatchment                 mm         mm         mm         mm         mm         mm         mm    10^6 ltr      CMS
  ------------------------------------------------------------------------------------------------------------------------------
  2707                      40.00       0.00       0.00       1.79      10.00      28.54      38.54        0.04     0.01   0.964
  2708                      40.00       0.00       0.00       1.79      10.00      28.54      38.54        0.04     0.01   0.964
  2709                      40.00       0.00       0.00       1.79      10.00      28.54      38.54        0.04     0.01   0.964
  2710                      40.00       0.00       0.00       1.79      10.00      28.54      38.54        0.04     0.01   0.964
  2712                      40.00       0.00       0.00       1.79      10.00      28.54      38.54        0.04     0.01   0.964
  2713                      40.00       0.00       0.00       1.79      10.00      28.54      38.54        0.04     0.01   0.964
  2714                      40.00       0.00       0.00       1.79      10.00      28.54      38.54        0.04     0.01   0.964
  2715                      40.00       0.00       0.00       1.79      10.00      28.54      38.54        0.04     0.01   0.964
  2716                      40.00       0.00       0.00       1.79      10.00      28.54      38.54        0.04     0.01   0.964
  2717                      40.00       0.00       0.00       1.79      10.00      28.54      38.54        0.04     0.01   0.964
  2718                      40.00       0.00       0.00       1.79      10.00      28.54      38.54        0.04     0.01   0.964
  2719                      40.00       0.00       0.00       1.79      10.00      28.54      38.54        0.04     0.01   0.964
  2721                      40.00       0.00       0.00       1.79      10.00      28.54      38.54        0.04     0.01   0.964
  2722                      40.00       0.00       0.00       1.79      10.00      28.54      38.54        0.04     0.01   0.964
  2723                      40.00       0.00       0.00       1.79      10.00      28.54      38.54        0.04     0.01   0.964
  2724                      40.00       0.00       0.00       1.79      10.00      28.54      38.54        0.04     0.01   0.964
  2725                      40.00       0.00       0.00       1.79      10.00      28.54      38.54        0.04     0.01   0.964
  2726                      40.00       0.00       0.00       1.79      10.00      28.54      38.54        0.04     0.01   0.964
  2727                      40.00       0.00       0.00       1.79      10.00      28.54      38.54        0.04     0.01   0.964
  2728                      40.00       0.00       0.00       1.79      10.00      28.54      38.54        0.04     0.01   0.964
  2729                      40.00       0.00       0.00       1.79      10.00      28.54      38.54        0.04     0.01   0.964
  2730                      40.00       0.00       0.00       1.79      10.00      28.54      38.54        0.04     0.01   0.964
  2731                      40.00       0.00       0.00       1.79      10.00      28.54      38.54        0.04     0.01   0.964
  2732                      40.00       0.00       0.00       1.79      10.00      28.54      38.54        0.04     0.01   0.964
  2733                      40.00       0.00       0.00       1.79      10.00      28.54      38.54        0.04     0.01   0.964
  2734                      40.00       0.00       0.00       1.79      10.00      28.54      38.54        0.04     0.01   0.964
  2735                      40.00       0.00       0.00       1.79      10.00      28.54      38.54        0.04     0.01   0.964
  2736                      40.00       0.00       0.00       1.79      10.00      28.54      38.54        0.04     0.01   0.964
  2737                      40.00       0.00       0.00       1.79      10.00      28.54      38.54        0.04     0.01   0.964
  2738                      40.00       0.00       0.00       1.79      10.00      28.54      38.54        0.04     0.01   0.964
  2739                      40.00       0.00       0.00       1.79      10.00      28.54      38.54        0.04     0.01   0.964
  2740                      40.00       0.00       0.00       1.79      10.00      28.54      38.54        0.04     0.01   0.964
  2741                      40.00       0.00       0.00       1.79      10.00      28.54      38.54        0.04     0.01   0.964
  2742                      40.00       0.00       0.00       1.79      10.00      28.54      38.54        0.04     0.01   0.964
  2743                      40.00       0.00       0.00       1.79      10.00      28.54      38.54        0.04     0.01   0.964
  2744                      40.00       0.00       0.00       1.79      10.00      28.54      38.54        0.04     0.01   0.964
  2745                      40.00       0.00       0.00       1.79      10.00      28.54      38.54        0.04     0.01   0.964
  2746                      40.00       0.00       0.00       1.79      10.00      28.54      38.54        0.04     0.01   0.964
  2747                      40.00       0.00       0.00       1.79      10.00      28.54      38.54        0.04     0.01   0.964
  2748                      40.00       0.00       0.00       1.79      10.00      28.54      38.54        0.04     0.01   0.964
  2749                      40.00       0.00       0.00       1.79      10.00      28.54      38.54        0.04     0.01   0.964
  2750                      40.00       0.00       0.00       1.79      10.00      28.54      38.54        0.04     0.01   0.964
  2751                      40.00       0.00       0.00       1.79      10.00      28.54      38.54        0.04     0.01   0.964
  2752                      40.00       0.00       0.00       1.79      10.00      28.54      38.54        0.04     0.01   0.964
  2753                      40.00       0.00       0.00       1.79      10.00      28.54      38.54        0.04     0.01   0.964
  2754                      40.00       0.00       0.00       1.79      10.00      28.54      38.54        0.04     0.01   0.964
  2755                      40.00       0.00       0.00       1.79      10.00      28.54      38.54        0.04     0.01   0.964
  2756                      40.00       0.00       0.00       1.79      10.00      28.54      38.54        0.04     0.01   0.964
  2964                      40.00       0.00       0.00       1.79      10.00      28.54      38.54        0.04     0.01   0.964
  2969                      40.00       0.00       0.00       1.79      10.00      28.54      38.54        0.04     0.01   0.964
  2970                      40.00       0.00       0.00       1.79      10.00      28.54      38.54        0.04     0.01   0.964
  2974                      40.00       0.00       0.00       1.79      10.00      28.54      38.54        0.04     0.01   0.964
  2975                      40.00       0.00       0.00       1.79      10.00      28.54      38.54        0.04     0.01   0.964
  2976                      40.00       0.00       0.00       1.79      10.00      28.54      38.54        0.04     0.01   0.964
  2977                      40.00       0.00       0.00       1.79      10.00      28.54      38.54        0.04     0.01   0.964
  2978                      40.00       0.00       0.00       1.79      10.00      28.54      38.54        0.04     0.01   0.964
  2979                      40.00       0.00       0.00       1.79      10.00      28.54      38.54        0.04     0.01   0.964
  2980                      40.00       0.00       0.00       1.79      10.00      28.54      38.54        0.04     0.01   0.964
  2981                      40.00       0.00       0.00       1.79      10.00      28.54      38.54        0.04     0.01   0.964
  2982                      40.00       0.00       0.00       1.79      10.00      28.54      38.54        0.04     0.01   0.964
  2984                      40.00       0.00       0.00       1.79      10.00      28.54      38.54        0.04     0.01   0.964
  2985                      40.00       0.00       0.00       1.79      10.00      28.54      38.54        0.04     0.01   0.964
  3925                      40.00       0.00       0.00       1.79      10.00      28.54      38.54        0.04     0.01   0.964
  3926                      40.00       0.00       0.00       1.79      10.00      28.54      38.54        0.04     0.01   0.964
  3927                      40.00       0.00       0.00       1.79      10.00      28.54      38.54        0.04     0.01   0.964
  3928                      40.00       0.00       0.00       1.79      10.00      28.54      38.54        0.04     0.01   0.964
  3929                      40.00       0.00       0.00       1.79      10.00      28.54      38.54        0.04     0.01   0.964
  3930                      40.00       0.00       0.00       1.79      10.00      28.54      38.54        0.04     0.01   0.964
  3931                      40.00       0.00       0.00       1.79      10.00      28.54      38.54        0.04     0.01   0.964
  3932                      40.00       0.00       0.00       1.79      10.00      28.54      38.54        0.04     0.01   0.964
  3933                      40.00       0.00       0.00       1.79      10.00      28.54      38.54        0.04     0.01   0.964
  3934                      40.00       0.00       0.00       1.79      10.00      28.54      38.54        0.04     0.01   0.964
  3935                      40.00       0.00       0.00       1.79      10.00      28.54      38.54        0.04     0.01   0.964
  3936                      40.00       0.00       0.00       1.79      10.00      28.54      38.54        0.04     0.01   0.964
  3937                      40.00       0.00       0.00       1.79      10.00      28.54      38.54        0.04     0.01   0.964
  3938                      40.00       0.00       0.00       1.79      10.00      28.54      38.54        0.04     0.01   0.964
  3939                      40.00       0.00       0.00       1.79      10.00      28.54      38.54        0.04     0.01   0.964
  3940                      40.00       0.00       0.00       1.79      10.00      28.54      38.54        0.04     0.01   0.964
  3941                      40.00       0.00       0.00       1.79      10.00      28.54      38.54        0.04     0.01   0.964
  3942                      40.00       0.00       0.00       1.79      10.00      28.54      38.54        0.04     0.01   0.964
  3943                      40.00       0.00       0.00       1.79      10.00      28.54      38.54        0.04     0.01   0.964
  3944                      40.00       0.00       0.00       1.79      10.00      28.54      38.54        0.04     0.01   0.964
  3945                      40.00       0.00       0.00       1.79      10.00      28.54      38.54        0.04     0.01   0.964
  3946                      40.00       0.00       0.00       1.79      10.00      28.54      38.54        0.04     0.01   0.964
  3947                      40.00       0.00       0.00       1.79      10.00      28.54      38.54        0.04     0.01   0.964
  3948                      40.00       0.00       0.00       1.79      10.00      28.54      38.54        0.04     0.01   0.964
  3949                      40.00       0.00       0.00       1.79      10.00      28.54      38.54        0.04     0.01   0.964
  3950                      40.00       0.00       0.00       1.79      10.00      28.54      38.54        0.04     0.01   0.964
  3951                      40.00       0.00       0.00       1.79      10.00      28.54      38.54        0.04     0.01   0.964
  3952                      40.00       0.00       0.00       1.79      10.00      28.54      38.54        0.04     0.01   0.964
  3953                      40.00       0.00       0.00       1.79      10.00      28.54      38.54        0.04     0.01   0.964
  3954                      40.00       0.00       0.00       1.79      10.00      28.54      38.54        0.04     0.01   0.964
  3955                      40.00       0.00       0.00       1.79      10.00      28.54      38.54        0.04     0.01   0.964
  3956                      40.00       0.00       0.00       1.79      10.00      28.54      38.54        0.04     0.01   0.964
  4032                      40.00       0.00       0.00       1.79      10.00      28.54      38.54        0.04     0.01   0.964
  4033                      40.00       0.00       0.00       1.79      10.00      28.54      38.54        0.04     0.01   0.964
  4041                      40.00       0.00       0.00       1.79      10.00      28.54      38.54        0.04     0.01   0.964
  4051                      40.00       0.00       0.00       1.79      10.00      28.54      38.54        0.04     0.01   0.964
  4055                      40.00       0.00       0.00       1.79      10.00      28.54      38.54        0.04     0.01   0.964
  4056                      40.00       0.00       0.00       1.79      10.00      28.54      38.54        0.04     0.01   0.964
  4058                      40.00       0.00       0.00       1.79      10.00      28.54      38.54        0.04     0.01   0.964
  4385                      40.00       0.00       0.00       1.79      10.00      28.54      38.54        0.04     0.01   0.964
  4386                      40.00       0.00       0.00       1.79      10.00      28.54      38.54        0.04     0.01   0.964
  4387                      40.00       0.00       0.00       1.79      10.00      28.54      38.54        0.04     0.01   0.964
  4388                      40.00       0.00       0.00       1.79      10.00      28.54      38.54        0.04     0.01   0.964
  4389                      40.00       0.00       0.00       1.79      10.00      28.54      38.54        0.04     0.01   0.964
  4390                      40.00       0.00       0.00       1.79      10.00      28.54      38.54        0.04     0.01   0.964
  4391                      40.00       0.00       0.00       1.79      10.00      28.54      38.54        0.04     0.01   0.964
  4392                      40.00       0.00       0.00       1.79      10.00      28.54      38.54        0.04     0.01   0.964
  4393                      40.00       0.00       0.00       1.79      10.00      28.54      38.54        0.04     0.01   0.964
  4394                      40.00       0.00       0.00       1.79      10.00      28.54      38.54        0.04     0.01   0.964
  4395                      40.00       0.00       0.00       1.79      10.00      28.54      38.54        0.04     0.01   0.964
  4396                      40.00       0.00       0.00       1.79      10.00      28.54      38.54        0.04     0.01   0.964
  4397                      40.00       0.00       0.00       1.79      10.00      28.54      38.54        0.04     0.01   0.964
  4398                      40.00       0.00       0.00       1.79      10.00      28.54      38.54        0.04     0.01   0.964
  4429                      40.00       0.00       0.00       1.79      10.00      28.54      38.54        0.04     0.01   0.964
  4430                      40.00       0.00       0.00       1.79      10.00      28.54      38.54        0.04     0.01   0.964
  4431                      40.00       0.00       0.00       1.79      10.00      28.54      38.54        0.04     0.01   0.964
  4432                      40.00       0.00       0.00       1.79      10.00      28.54      38.54        0.04     0.01   0.964
  4433                      40.00       0.00       0.00       1.79      10.00      28.54      38.54        0.04     0.01   0.964
  4434                      40.00       0.00       0.00       1.79      10.00      28.54      38.54        0.04     0.01   0.964
  4435                      40.00       0.00       0.00       1.79      10.00      28.54      38.54        0.04     0.01   0.964
  4436                      40.00       0.00       0.00       1.79      10.00      28.54      38.54        0.04     0.01   0.964
  4437                      40.00       0.00       0.00       1.79      10.00      28.54      38.54        0.04     0.01   0.964
  4438                      40.00       0.00       0.00       1.79      10.00      28.54      38.54        0.04     0.01   0.964
  4439                      40.00       0.00       0.00       1.79      10.00      28.54      38.54        0.04     0.01   0.964
  4440                      40.00       0.00       0.00       1.79      10.00      28.54      38.54        0.04     0.01   0.964
  4441                      40.00       0.00       0.00       1.79      10.00      28.54      38.54        0.04     0.01   0.964
  4442                      40.00       0.00       0.00       1.79      10.00      28.54      38.54        0.04     0.01   0.964
  4443                      40.00       0.00       0.00       1.79      10.00      28.54      38.54        0.04     0.01   0.964
  4444                      40.00       0.00       0.00       1.79      10.00      28.54      38.54        0.04     0.01   0.964
  4445                      40.00       0.00       0.00       1.79      10.00      28.54      38.54        0.04     0.01   0.964
  4446                      40.00       0.00       0.00       1.79      10.00      28.54      38.54        0.04     0.01   0.964
  4447                      40.00       0.00       0.00       1.79      10.00      28.54      38.54        0.04     0.01   0.964
  4448                      40.00       0.00       0.00       1.79      10.00      28.54      38.54        0.04     0.01   0.964
  4449                      40.00       0.00       0.00       1.79      10.00      28.54      38.54        0.04     0.01   0.964
  4450                      40.00       0.00       0.00       1.79      10.00      28.54      38.54        0.04     0.01   0.964
  4451                      40.00       0.00       0.00       1.79      10.00      28.54      38.54        0.04     0.01   0.964
  4452                      40.00       0.00       0.00       1.79      10.00      28.54      38.54        0.04     0.01   0.964
  4453                      40.00       0.00       0.00       1.79      10.00      28.54      38.54        0.04     0.01   0.964
  4454                      40.00       0.00       0.00       1.79      10.00      28.54      38.54        0.04     0.01   0.964
  4462                      40.00       0.00       0.00       1.79      10.00      28.54      38.54        0.04     0.01   0.964
  4463                      40.00       0.00       0.00       1.79      10.00      28.54      38.54        0.04     0.01   0.964
  4563                      40.00       0.00       0.00       1.79      10.00      28.54      38.54        0.04     0.01   0.964
  4564                      40.00       0.00       0.00       1.79      10.00      28.54      38.54        0.04     0.01   0.964
  4565                      40.00       0.00       0.00       1.79      10.00      28.54      38.54        0.04     0.01   0.964
  4566                      40.00       0.00       0.00       1.79      10.00      28.54      38.54        0.04     0.01   0.964
  4567                      40.00       0.00       0.00       1.79      10.00      28.54      38.54        0.04     0.01   0.964
  4568                      40.00       0.00       0.00       1.79      10.00      28.54      38.54        0.04     0.01   0.964
  4569                      40.00       0.00       0.00       1.79      10.00      28.54      38.54        0.04     0.01   0.964
  4570                      40.00       0.00       0.00       1.79      10.00      28.54      38.54        0.04     0.01   0.964
  4571                      40.00       0.00       0.00       1.79      10.00      28.54      38.54        0.04     0.01   0.964
  4572                      40.00       0.00       0.00       1.79      10.00      28.54      38.54        0.04     0.01   0.964
  4573                      40.00       0.00       0.00       1.79      10.00      28.54      38.54        0.04     0.01   0.964
  4574                      40.00       0.00       0.00       1.79      10.00      28.54      38.54        0.04     0.01   0.964
  4575                      40.00       0.00       0.00       1.79      10.00      28.54      38.54        0.04     0.01   0.964
  4576                      40.00       0.00       0.00       1.79      10.00      28.54      38.54        0.04     0.01   0.964
  4577                      40.00       0.00       0.00       1.79      10.00      28.54      38.54        0.04     0.01   0.964
  4578                      40.00       0.00       0.00       1.79      10.00      28.54      38.54        0.04     0.01   0.964
  4579                      40.00       0.00       0.00       1.79      10.00      28.54      38.54        0.04     0.01   0.964
  4580                      40.00       0.00       0.00       1.79      10.00      28.54      38.54        0.04     0.01   0.964
  4581                      40.00       0.00       0.00       1.79      10.00      28.54      38.54        0.04     0.01   0.964
  4624                      40.00       0.00       0.00       1.79      10.00      28.54      38.54        0.04     0.01   0.964
  4625                      40.00       0.00       0.00       1.79      10.00      28.54      38.54        0.04     0.01   0.964
  4644                      40.00       0.00       0.00       1.79      10.00      28.54      38.54        0.04     0.01   0.964
  4645                      40.00       0.00       0.00       1.79      10.00      28.54      38.54        0.04     0.01   0.964
  4646                      40.00       0.00       0.00       1.79      10.00      28.54      38.54        0.04     0.01   0.964
  4679                      40.00       0.00       0.00       1.79      10.00      28.54      38.54        0.04     0.01   0.964
  4680                      40.00       0.00       0.00       1.79      10.00      28.54      38.54        0.04     0.01   0.964
  4681                      40.00       0.00       0.00       1.79      10.00      28.54      38.54        0.04     0.01   0.964
  4682                      40.00       0.00       0.00       1.79      10.00      28.54      38.54        0.04     0.01   0.964
  4683                      40.00       0.00       0.00       1.79      10.00      28.54      38.54        0.04     0.01   0.964
  4711                      40.00       0.00       0.00       1.79      10.00      28.54      38.54        0.04     0.01   0.964
  4712                      40.00       0.00       0.00       1.79      10.00      28.54      38.54        0.04     0.01   0.964
  4713                      40.00       0.00       0.00       1.79      10.00      28.54      38.54        0.04     0.01   0.964
  4714                      40.00       0.00       0.00       1.79      10.00      28.54      38.54        0.04     0.01   0.964
  4715                      40.00       0.00       0.00       1.79      10.00      28.54      38.54        0.04     0.01   0.964
  4716                      40.00       0.00       0.00       1.79      10.00      28.54      38.54        0.04     0.01   0.964
  4717                      40.00       0.00       0.00       1.79      10.00      28.54      38.54        0.04     0.01   0.964
  4718                      40.00       0.00       0.00       1.79      10.00      28.54      38.54        0.04     0.01   0.964
  4722                      40.00       0.00       0.00       1.79      10.00      28.54      38.54        0.04     0.01   0.964
  4760                      40.00       0.00       0.00       1.79      10.00      28.54      38.54        0.04     0.01   0.964
  4761                      40.00       0.00       0.00       1.79      10.00      28.54      38.54        0.04     0.01   0.964
  4765                      40.00       0.00       0.00       1.79      10.00      28.54      38.54        0.04     0.01   0.964
  4766                      40.00       0.00       0.00       1.79      10.00      28.54      38.54        0.04     0.01   0.964
  4767                      40.00       0.00       0.00       1.79      10.00      28.54      38.54        0.04     0.01   0.964
  4768                      40.00       0.00       0.00       1.79      10.00      28.54      38.54        0.04     0.01   0.964
  4769                      40.00       0.00       0.00       1.79      10.00      28.54      38.54        0.04     0.01   0.964
  4855                      40.00       0.00       0.00       1.79      10.00      28.54      38.54        0.04     0.01   0.964
  4856                      40.00       0.00       0.00       1.79      10.00      28.54      38.54        0.04     0.01   0.964
  5284                      40.00       0.00       0.00       1.79      10.00      28.54      38.54        0.04     0.01   0.964
  5285                      40.00       0.00       0.00       1.79      10.00      28.54      38.54        0.04     0.01   0.964
  5286                      40.00       0.00       0.00       1.79      10.00      28.54      38.54        0.04     0.01   0.964
  5287                      40.00       0.00       0.00       1.79      10.00      28.54      38.54        0.04     0.01   0.964
  5288                      40.00       0.00       0.00       1.79      10.00      28.54      38.54        0.04     0.01   0.964
  5289                      40.00       0.00       0.00       1.79      10.00      28.54      38.54        0.04     0.01   0.964
  5290                      40.00       0.00       0.00       1.79      10.00      28.54      38.54        0.04     0.01   0.964
  5291                      40.00       0.00       0.00       1.79      10.00      28.54      38.54        0.04     0.01   0.964
  5292                      40.00       0.00       0.00       1.79      10.00      28.54      38.54        0.04     0.01   0.964
  5293                      40.00       0.00       0.00       1.79      10.00      28.54      38.54        0.04     0.01   0.964
  5294                      40.00       0.00       0.00       1.79      10.00      28.54      38.54        0.04     0.01   0.964
  5295                      40.00       0.00       0.00       1.79      10.00      28.54      38.54        0.04     0.01   0.964
  5296                      40.00       0.00       0.00       1.79      10.00      28.54      38.54        0.04     0.01   0.964
  5297                      40.00       0.00       0.00       1.79      10.00      28.54      38.54        0.04     0.01   0.964
  5298                      40.00       0.00       0.00       1.79      10.00      28.54      38.54        0.04     0.01   0.964
  5299                      40.00       0.00       0.00       1.79      10.00      28.54      38.54        0.04     0.01   0.964
  5300                      40.00       0.00       0.00       1.79      10.00      28.54      38.54        0.04     0.01   0.964
  5301                      40.00       0.00       0.00       1.79      10.00      28.54      38.54        0.04     0.01   0.964
  5302                      40.00       0.00       0.00       1.79      10.00      28.54      38.54        0.04     0.01   0.964
  5303                      40.00       0.00       0.00       1.79      10.00      28.54      38.54        0.04     0.01   0.964
  5304                      40.00       0.00       0.00       1.79      10.00      28.54      38.54        0.04     0.01   0.964
  5305                      40.00       0.00       0.00       1.79      10.00      28.54      38.54        0.04     0.01   0.964
  5306                      40.00       0.00       0.00       1.79      10.00      28.54      38.54        0.04     0.01   0.964
  5307                      40.00       0.00       0.00       1.79      10.00      28.54      38.54        0.04     0.01   0.964
  5308                      40.00       0.00       0.00       1.79      10.00      28.54      38.54        0.04     0.01   0.964
  5309                      40.00       0.00       0.00       1.79      10.00      28.54      38.54        0.04     0.01   0.964
  5310                      40.00       0.00       0.00       1.79      10.00      28.54      38.54        0.04     0.01   0.964
  5311                      40.00       0.00       0.00       1.79      10.00      28.54      38.54        0.04     0.01   0.964
  5312                      40.00       0.00       0.00       1.79      10.00      28.54      38.54        0.04     0.01   0.964
  5313                      40.00       0.00       0.00       1.79      10.00      28.54      38.54        0.04     0.01   0.964
  5314                      40.00       0.00       0.00       1.79      10.00      28.54      38.54        0.04     0.01   0.964
  5315                      40.00       0.00       0.00       1.79      10.00      28.54      38.54        0.04     0.01   0.964
  5316                      40.00       0.00       0.00       1.79      10.00      28.54      38.54        0.04     0.01   0.964
  5317                      40.00       0.00       0.00       1.79      10.00      28.54      38.54        0.04     0.01   0.964
  5318                      40.00       0.00       0.00       1.79      10.00      28.54      38.54        0.04     0.01   0.964
  5319                      40.00       0.00       0.00       1.79      10.00      28.54      38.54        0.04     0.01   0.964
  5320                      40.00       0.00       0.00       1.79      10.00      28.54      38.54        0.04     0.01   0.964
  5321                      40.00       0.00       0.00       1.79      10.00      28.54      38.54        0.04     0.01   0.964
  5322                      40.00       0.00       0.00       1.79      10.00      28.54      38.54        0.04     0.01   0.964
  5323                      40.00       0.00       0.00       1.79      10.00      28.54      38.54        0.04     0.01   0.964
  5324                      40.00       0.00       0.00       1.79      10.00      28.54      38.54        0.04     0.01   0.964
  5325                      40.00       0.00       0.00       1.79      10.00      28.54      38.54        0.04     0.01   0.964
  5326                      40.00       0.00       0.00       1.79      10.00      28.54      38.54        0.04     0.01   0.964
  5327                      40.00       0.00       0.00       1.79      10.00      28.54      38.54        0.04     0.01   0.964
  5328                      40.00       0.00       0.00       1.79      10.00      28.54      38.54        0.04     0.01   0.964
  5329                      40.00       0.00       0.00       1.79      10.00      28.54      38.54        0.04     0.01   0.964
  5330                      40.00       0.00       0.00       1.79      10.00      28.54      38.54        0.04     0.01   0.964
  5333                      40.00       0.00       0.00       1.79      10.00      28.54      38.54        0.04     0.01   0.964
  5334                      40.00       0.00       0.00       1.79      10.00      28.54      38.54        0.04     0.01   0.964
  6040                      40.00       0.00       0.00       1.79      10.00      28.54      38.54        0.04     0.01   0.964
  6041                      40.00       0.00       0.00       1.79      10.00      28.54      38.54        0.04     0.01   0.964
  6162                      40.00       0.00       0.00       1.79      10.00      28.54      38.54        0.04     0.01   0.964
  7207                      40.00       0.00       0.00       1.79      10.00      28.54      38.54        0.04     0.01   0.964
  7208                      40.00       0.00       0.00       1.79      10.00      28.54      38.54        0.04     0.01   0.964
  7213                      40.00       0.00       0.00       1.79      10.00      28.54      38.54        0.04     0.01   0.964
  7214                      40.00       0.00       0.00       1.79      10.00      28.54      38.54        0.04     0.01   0.964
  7219                      40.00       0.00       0.00       1.79      10.00      28.54      38.54        0.04     0.01   0.964
  7220                      40.00       0.00       0.00       1.79      10.00      28.54      38.54        0.04     0.01   0.964
  7221                      40.00       0.00       0.00       1.79      10.00      28.54      38.54        0.04     0.01   0.964
  7225                      40.00       0.00       0.00       1.79      10.00      28.54      38.54        0.04     0.01   0.964
  7229                      40.00       0.00       0.00       1.79      10.00      28.54      38.54        0.04     0.01   0.964
  7231                      40.00       0.00       0.00       1.79      10.00      28.54      38.54        0.04     0.01   0.964
  7268                      40.00       0.00       0.00       1.79      10.00      28.54      38.54        0.04     0.01   0.964
  7269                      40.00       0.00       0.00       1.79      10.00      28.54      38.54        0.04     0.01   0.964
  7271                      40.00       0.00       0.00       1.79      10.00      28.54      38.54        0.04     0.01   0.964
  7272                      40.00       0.00       0.00       1.79      10.00      28.54      38.54        0.04     0.01   0.964
  7273                      40.00       0.00       0.00       1.79      10.00      28.54      38.54        0.04     0.01   0.964
  7433                      40.00       0.00       0.00       1.79      10.00      28.54      38.54        0.04     0.01   0.964
  7434                      40.00       0.00       0.00       1.79      10.00      28.54      38.54        0.04     0.01   0.964
  7544                      40.00       0.00       0.00       1.79      10.00      28.54      38.54        0.04     0.01   0.964
  7545                      40.00       0.00       0.00       1.79      10.00      28.54      38.54        0.04     0.01   0.964
  8737                      40.00       0.00       0.00       1.79      10.00      28.54      38.54        0.04     0.01   0.964
  8818                      40.00       0.00       0.00       1.79      10.00      28.54      38.54        0.04     0.01   0.964
  9942                      40.00       0.00       0.00       1.79      10.00      28.54      38.54        0.04     0.01   0.964
  9957                      40.00       0.00       0.00       1.79      10.00      28.54      38.54        0.04     0.01   0.964
  4399                      40.00       0.00       0.00       1.71      10.00      28.48      38.48        0.01     0.00   0.962
  4400                      40.00       0.00       0.00       1.71      10.00      28.48      38.48        0.01     0.00   0.962
  4401                      40.00       0.00       0.00       1.71      10.00      28.48      38.48        0.01     0.00   0.962
  4402                      40.00       0.00       0.00       1.71      10.00      28.48      38.48        0.01     0.00   0.962
  4403                      40.00       0.00       0.00       1.71      10.00      28.48      38.48        0.01     0.00   0.962
  4404                      40.00       0.00       0.00       1.71      10.00      28.48      38.48        0.01     0.00   0.962
  4405                      40.00       0.00       0.00       1.71      10.00      28.48      38.48        0.01     0.00   0.962
  4406                      40.00       0.00       0.00       1.71      10.00      28.48      38.48        0.01     0.00   0.962
  4407                      40.00       0.00       0.00       1.71      10.00      28.48      38.48        0.01     0.00   0.962
  4408                      40.00       0.00       0.00       1.71      10.00      28.48      38.48        0.01     0.00   0.962
  4409                      40.00       0.00       0.00       1.71      10.00      28.48      38.48        0.01     0.00   0.962
  4410                      40.00       0.00       0.00       1.71      10.00      28.48      38.48        0.01     0.00   0.962
  4411                      40.00       0.00       0.00       1.71      10.00      28.48      38.48        0.01     0.00   0.962
  4412                      40.00       0.00       0.00       1.71      10.00      28.48      38.48        0.01     0.00   0.962
  4423                      40.00       0.00       0.00       1.71      10.00      28.48      38.48        0.01     0.00   0.962
  4424                      40.00       0.00       0.00       1.71      10.00      28.48      38.48        0.01     0.00   0.962
  4425                      40.00       0.00       0.00       1.71      10.00      28.48      38.48        0.01     0.00   0.962
  4426                      40.00       0.00       0.00       1.71      10.00      28.48      38.48        0.01     0.00   0.962
  4427                      40.00       0.00       0.00       1.71      10.00      28.48      38.48        0.01     0.00   0.962
  4428                      40.00       0.00       0.00       1.71      10.00      28.48      38.48        0.01     0.00   0.962
  4455                      40.00       0.00       0.00       1.71      10.00      28.48      38.48        0.01     0.00   0.962
  4456                      40.00       0.00       0.00       1.71      10.00      28.48      38.48        0.01     0.00   0.962
  4457                      40.00       0.00       0.00       1.71      10.00      28.48      38.48        0.01     0.00   0.962
  4458                      40.00       0.00       0.00       1.71      10.00      28.48      38.48        0.01     0.00   0.962
  4459                      40.00       0.00       0.00       1.71      10.00      28.48      38.48        0.01     0.00   0.962
  4460                      40.00       0.00       0.00       1.71      10.00      28.48      38.48        0.01     0.00   0.962
  4461                      40.00       0.00       0.00       1.71      10.00      28.48      38.48        0.01     0.00   0.962
  4464                      40.00       0.00       0.00       1.71      10.00      28.48      38.48        0.01     0.00   0.962
  4465                      40.00       0.00       0.00       1.71      10.00      28.48      38.48        0.01     0.00   0.962
  4466                      40.00       0.00       0.00       1.71      10.00      28.48      38.48        0.01     0.00   0.962
  4467                      40.00       0.00       0.00       1.71      10.00      28.48      38.48        0.01     0.00   0.962
  4468                      40.00       0.00       0.00       1.71      10.00      28.48      38.48        0.01     0.00   0.962
  4469                      40.00       0.00       0.00       1.71      10.00      28.48      38.48        0.01     0.00   0.962
  4470                      40.00       0.00       0.00       1.71      10.00      28.48      38.48        0.01     0.00   0.962
  4471                      40.00       0.00       0.00       1.71      10.00      28.48      38.48        0.01     0.00   0.962
  4472                      40.00       0.00       0.00       1.71      10.00      28.48      38.48        0.01     0.00   0.962
  4473                      40.00       0.00       0.00       1.71      10.00      28.48      38.48        0.01     0.00   0.962
  4474                      40.00       0.00       0.00       1.71      10.00      28.48      38.48        0.01     0.00   0.962
  4628                      40.00       0.00       0.00       1.71      10.00      28.48      38.48        0.01     0.00   0.962
  4631                      40.00       0.00       0.00       1.71      10.00      28.48      38.48        0.01     0.00   0.962
  4632                      40.00       0.00       0.00       1.71      10.00      28.48      38.48        0.01     0.00   0.962
  4633                      40.00       0.00       0.00       1.71      10.00      28.48      38.48        0.01     0.00   0.962
  4634                      40.00       0.00       0.00       1.71      10.00      28.48      38.48        0.01     0.00   0.962
  4637                      40.00       0.00       0.00       1.71      10.00      28.48      38.48        0.01     0.00   0.962
  4686                      40.00       0.00       0.00       1.71      10.00      28.48      38.48        0.01     0.00   0.962
  4687                      40.00       0.00       0.00       1.71      10.00      28.48      38.48        0.01     0.00   0.962
  4688                      40.00       0.00       0.00       1.71      10.00      28.48      38.48        0.01     0.00   0.962
  5032                      40.00       0.00       0.00       1.71      10.00      28.48      38.48        0.01     0.00   0.962
  5331                      40.00       0.00       0.00       1.71      10.00      28.48      38.48        0.01     0.00   0.962
  5332                      40.00       0.00       0.00       1.71      10.00      28.48      38.48        0.01     0.00   0.962
  5335                      40.00       0.00       0.00       1.71      10.00      28.48      38.48        0.01     0.00   0.962
  5336                      40.00       0.00       0.00       1.71      10.00      28.48      38.48        0.01     0.00   0.962
  5337                      40.00       0.00       0.00       1.71      10.00      28.48      38.48        0.01     0.00   0.962
  5338                      40.00       0.00       0.00       1.71      10.00      28.48      38.48        0.01     0.00   0.962
  5339                      40.00       0.00       0.00       1.71      10.00      28.48      38.48        0.01     0.00   0.962
  5340                      40.00       0.00       0.00       1.71      10.00      28.48      38.48        0.01     0.00   0.962
  5341                      40.00       0.00       0.00       1.71      10.00      28.48      38.48        0.01     0.00   0.962
  5342                      40.00       0.00       0.00       1.71      10.00      28.48      38.48        0.01     0.00   0.962
  5343                      40.00       0.00       0.00       1.71      10.00      28.48      38.48        0.01     0.00   0.962
  5344                      40.00       0.00       0.00       1.71      10.00      28.48      38.48        0.01     0.00   0.962
  5345                      40.00       0.00       0.00       1.71      10.00      28.48      38.48        0.01     0.00   0.962
  5346                      40.00       0.00       0.00       1.71      10.00      28.48      38.48        0.01     0.00   0.962
  5347                      40.00       0.00       0.00       1.71      10.00      28.48      38.48        0.01     0.00   0.962
  5348                      40.00       0.00       0.00       1.71      10.00      28.48      38.48        0.01     0.00   0.962
  5349                      40.00       0.00       0.00       1.71      10.00      28.48      38.48        0.01     0.00   0.962
  5350                      40.00       0.00       0.00       1.71      10.00      28.48      38.48        0.01     0.00   0.962
  6088                      40.00       0.00       0.00       1.71      10.00      28.48      38.48        0.01     0.00   0.962
  7275                      40.00       0.00       0.00       1.71      10.00      28.48      38.48        0.01     0.00   0.962
  9955                      40.00       0.00       0.00       1.71      10.00      28.48      38.48        0.01     0.00   0.962
  9956                      40.00       0.00       0.00       1.71      10.00      28.48      38.48        0.01     0.00   0.962
  
  
  ****************************
  Subcatchment Washoff Summary
  ****************************
  
  ----------------------------------
                                 COD
  Subcatchment                    kg
  ----------------------------------
  2707                        10.137
  2708                        10.137
  2709                        10.137
  2710                        10.137
  2712                        10.137
  2713                        10.137
  2714                        10.137
  2715                        10.137
  2716                        10.137
  2717                        10.137
  2718                        10.137
  2719                        10.137
  2721                        10.137
  2722                        10.137
  2723                        10.137
  2724                        10.137
  2725                        10.137
  2726                        10.137
  2727                        10.137
  2728                        10.137
  2729                        10.137
  2730                        10.137
  2731                        10.137
  2732                        10.137
  2733                        10.137
  2734                        10.137
  2735                        10.137
  2736                        10.137
  2737                        10.137
  2738                        10.137
  2739                        10.137
  2740                        10.137
  2741                        10.137
  2742                        10.137
  2743                        10.137
  2744                        10.137
  2745                        10.137
  2746                        10.137
  2747                        10.137
  2748                        10.137
  2749                        10.137
  2750                        10.137
  2751                        10.137
  2752                        10.137
  2753                        10.137
  2754                        10.137
  2755                        10.137
  2756                        10.137
  2964                        10.137
  2969                        10.137
  2970                        10.137
  2974                        10.137
  2975                        10.137
  2976                        10.137
  2977                        10.137
  2978                        10.137
  2979                        10.137
  2980                        10.137
  2981                        10.137
  2982                        10.137
  2984                        10.137
  2985                        10.137
  3925                        10.137
  3926                        10.137
  3927                        10.137
  3928                        10.137
  3929                        10.137
  3930                        10.137
  3931                        10.137
  3932                        10.137
  3933                        10.137
  3934                        10.137
  3935                        10.137
  3936                        10.137
  3937                        10.137
  3938                        10.137
  3939                        10.137
  3940                        10.137
  3941                        10.137
  3942                        10.137
  3943                        10.137
  3944                        10.137
  3945                        10.137
  3946                        10.137
  3947                        10.137
  3948                        10.137
  3949                        10.137
  3950                        10.137
  3951                        10.137
  3952                        10.137
  3953                        10.137
  3954                        10.137
  3955                        10.137
  3956                        10.137
  4032                        10.137
  4033                        10.137
  4041                        10.137
  4051                        10.137
  4055                        10.137
  4056                        10.137
  4058                        10.137
  4385                        10.137
  4386                        10.137
  4387                        10.137
  4388                        10.137
  4389                        10.137
  4390                        10.137
  4391                        10.137
  4392                        10.137
  4393                        10.137
  4394                        10.137
  4395                        10.137
  4396                        10.137
  4397                        10.137
  4398                        10.137
  4429                        10.137
  4430                        10.137
  4431                        10.137
  4432                        10.137
  4433                        10.137
  4434                        10.137
  4435                        10.137
  4436                        10.137
  4437                        10.137
  4438                        10.137
  4439                        10.137
  4440                        10.137
  4441                        10.137
  4442                        10.137
  4443                        10.137
  4444                        10.137
  4445                        10.137
  4446                        10.137
  4447                        10.137
  4448                        10.137
  4449                        10.137
  4450                        10.137
  4451                        10.137
  4452                        10.137
  4453                        10.137
  4454                        10.137
  4462                        10.137
  4463                        10.137
  4563                        10.137
  4564                        10.137
  4565                        10.137
  4566                        10.137
  4567                        10.137
  4568                        10.137
  4569                        10.137
  4570                        10.137
  4571                        10.137
  4572                        10.137
  4573                        10.137
  4574                        10.137
  4575                        10.137
  4576                        10.137
  4577                        10.137
  4578                        10.137
  4579                        10.137
  4580                        10.137
  4581                        10.137
  4624                        10.137
  4625                        10.137
  4644                        10.137
  4645                        10.137
  4646                        10.137
  4679                        10.137
  4680                        10.137
  4681                        10.137
  4682                        10.137
  4683                        10.137
  4711                        10.137
  4712                        10.137
  4713                        10.137
  4714                        10.137
  4715                        10.137
  4716                        10.137
  4717                        10.137
  4718                        10.137
  4722                        10.137
  4760                        10.137
  4761                        10.137
  4765                        10.137
  4766                        10.137
  4767                        10.137
  4768                        10.137
  4769                        10.137
  4855                        10.137
  4856                        10.137
  5284                        10.137
  5285                        10.137
  5286                        10.137
  5287                        10.137
  5288                        10.137
  5289                        10.137
  5290                        10.137
  5291                        10.137
  5292                        10.137
  5293                        10.137
  5294                        10.137
  5295                        10.137
  5296                        10.137
  5297                        10.137
  5298                        10.137
  5299                        10.137
  5300                        10.137
  5301                        10.137
  5302                        10.137
  5303                        10.137
  5304                        10.137
  5305                        10.137
  5306                        10.137
  5307                        10.137
  5308                        10.137
  5309                        10.137
  5310                        10.137
  5311                        10.137
  5312                        10.137
  5313                        10.137
  5314                        10.137
  5315                        10.137
  5316                        10.137
  5317                        10.137
  5318                        10.137
  5319                        10.137
  5320                        10.137
  5321                        10.137
  5322                        10.137
  5323                        10.137
  5324                        10.137
  5325                        10.137
  5326                        10.137
  5327                        10.137
  5328                        10.137
  5329                        10.137
  5330                        10.137
  5333                        10.137
  5334                        10.137
  6040                        10.137
  6041                        10.137
  6162                        10.137
  7207                        10.137
  7208                        10.137
  7213                        10.137
  7214                        10.137
  7219                        10.137
  7220                        10.137
  7221                        10.137
  7225                        10.137
  7229                        10.137
  7231                        10.137
  7268                        10.137
  7269                        10.137
  7271                        10.137
  7272                        10.137
  7273                        10.137
  7433                        10.137
  7434                        10.137
  7544                        10.137
  7545                        10.137
  8737                        10.137
  8818                        10.137
  9942                        10.137
  9957                        10.137
  4399                         3.036
  4400                         3.036
  4401                         3.036
  4402                         3.036
  4403                         3.036
  4404                         3.036
  4405                         3.036
  4406                         3.036
  4407                         3.036
  4408                         3.036
  4409                         3.036
  4410                         3.036
  4411                         3.036
  4412                         3.036
  4423                         3.036
  4424                         3.036
  4425                         3.036
  4426                         3.036
  4427                         3.036
  4428                         3.036
  4455                         3.036
  4456                         3.036
  4457                         3.036
  4458                         3.036
  4459                         3.036
  4460                         3.036
  4461                         3.036
  4464                         3.036
  4465                         3.036
  4466                         3.036
  4467                         3.036
  4468                         3.036
  4469                         3.036
  4470                         3.036
  4471                         3.036
  4472                         3.036
  4473                         3.036
  4474                         3.036
  4628                         3.036
  4631                         3.036
  4632                         3.036
  4633                         3.036
  4634                         3.036
  4637                         3.036
  4686                         3.036
  4687                         3.036
  4688                         3.036
  5032                         3.036
  5331                         3.036
  5332                         3.036
  5335                         3.036
  5336                         3.036
  5337                         3.036
  5338                         3.036
  5339                         3.036
  5340                         3.036
  5341                         3.036
  5342                         3.036
  5343                         3.036
  5344                         3.036
  5345                         3.036
  5346                         3.036
  5347                         3.036
  5348                         3.036
  5349                         3.036
  5350                         3.036
  6088                         3.036
  7275                         3.036
  9955                         3.036
  9956                         3.036
  ----------------------------------
  System                    2898.894
  
  
  ******************
  Node Depth Summary
  ******************
  
  ---------------------------------------------------------------------------------
                                 Average  Maximum  Maximum  Time of Max    Reported
                                   Depth    Depth      HGL   Occurrence   Max Depth
  Node                 Type       Meters   Meters   Meters  days hr:min      Meters
  ---------------------------------------------------------------------------------
  Node_02706           JUNCTION     2.17     4.21   101.05     0  04:13        0.00
  Node_02707           JUNCTION     0.57     2.65   102.08     0  04:13        0.00
  Node_02708           JUNCTION     0.50     2.66   102.42     0  04:12        0.00
  Node_02709           JUNCTION     0.58     2.89   102.52     0  04:12        0.00
  Node_02711           JUNCTION     0.26     2.59   102.50     0  04:12        0.00
  Node_02712           JUNCTION     0.26     2.57   102.47     0  04:12        0.00
  Node_02713           JUNCTION     0.31     2.56   102.41     0  04:12        0.00
  Node_02714           JUNCTION     0.07     2.02   102.42     0  04:12        0.00
  Node_02715           JUNCTION     0.31     2.42   102.23     0  04:12        0.00
  Node_02716           JUNCTION     0.35     2.37   102.09     0  04:12        0.00
  Node_02717           JUNCTION     0.41     2.45   102.08     0  04:13        0.00
  Node_02718           JUNCTION     0.42     2.50   102.10     0  04:13        0.00
  Node_02720           JUNCTION     0.44     2.54   102.11     0  04:13        0.00
  Node_02721           JUNCTION     0.73     2.90   102.15     0  04:12        0.00
  Node_02722           JUNCTION     0.14     0.31   102.11     0  04:13        0.00
  Node_02723           JUNCTION     0.67     2.78   102.07     0  04:12        0.00
  Node_02724           JUNCTION     0.52     2.57   101.98     0  04:13        0.00
  Node_02725           JUNCTION     0.55     2.52   101.89     0  04:13        0.00
  Node_02726           JUNCTION     0.62     2.52   101.78     0  04:13        0.00
  Node_02727           JUNCTION     0.73     2.55   101.67     0  04:13        0.00
  Node_02728           JUNCTION     0.18     1.60   101.68     0  04:13        0.00
  Node_02729           JUNCTION     0.77     2.50   101.56     0  04:13        0.00
  Node_02730           JUNCTION     0.79     2.42   101.45     0  04:13        0.00
  Node_02731           JUNCTION     1.21     2.71   101.30     0  04:13        0.00
  Node_02732           JUNCTION     0.78     2.19   101.21     0  04:12        0.00
  Node_02733           JUNCTION     0.76     2.23   101.23     0  04:13        0.00
  Node_02734           JUNCTION     1.04     2.54   101.25     0  04:12        0.00
  Node_02735           JUNCTION     0.94     2.44   101.25     0  04:12        0.00
  Node_02736           JUNCTION     1.11     2.65   101.26     0  04:12        0.00
  Node_02737           JUNCTION     1.09     2.64   101.26     0  04:12        0.00
  Node_02738           JUNCTION     0.90     2.50   101.27     0  04:12        0.00
  Node_02739           JUNCTION     0.76     2.41   101.28     0  04:12        0.00
  Node_02740           JUNCTION     0.76     2.44   101.28     0  04:13        0.00
  Node_02741           JUNCTION     0.42     1.98   101.28     0  04:13        0.00
  Node_02742           JUNCTION     0.76     2.46   101.27     0  04:13        0.00
  Node_02743           JUNCTION     1.15     2.91   101.28     0  04:11        0.00
  Node_02744           JUNCTION     0.34     1.94   101.29     0  04:11        0.00
  Node_02745           JUNCTION     0.87     2.64   101.26     0  04:11        0.00
  Node_02746           JUNCTION     0.75     2.55   101.25     0  04:13        0.00
  Node_02747           JUNCTION     0.08     0.94   101.29     0  04:10        0.00
  Node_02748           JUNCTION     0.05     0.80   101.25     0  04:13        0.00
  Node_02749           JUNCTION     0.74     2.57   101.21     0  04:13        0.00
  Node_02750           JUNCTION     0.72     2.58   101.19     0  04:13        0.00
  Node_02751           JUNCTION     0.68     2.56   101.16     0  04:13        0.00
  Node_02752           JUNCTION     0.67     2.58   101.12     0  04:13        0.00
  Node_02753           JUNCTION     0.68     2.61   101.09     0  04:13        0.00
  Node_02754           JUNCTION     0.69     2.74   101.06     0  04:13        0.00
  Node_02755           JUNCTION     1.61     3.65   101.05     0  04:13        0.00
  Node_02963           JUNCTION     0.25     2.18   102.09     0  04:13        0.00
  Node_02968           JUNCTION     0.12     1.16   101.28     0  04:13        0.00
  Node_02969           JUNCTION     0.14     1.40   101.29     0  04:11        0.00
  Node_02973           JUNCTION     1.13     3.17   101.05     0  04:13        0.00
  Node_02974           JUNCTION     1.19     3.24   100.37     0  04:15        0.00
  Node_02975           JUNCTION     1.20     3.27   100.40     0  04:15        0.00
  Node_02976           JUNCTION     1.33     3.48   100.67     0  04:15        0.00
  Node_02977           JUNCTION     1.48     3.76   101.09     0  04:13        0.00
  Node_02978           JUNCTION     1.43     3.73   101.26     0  04:13        0.00
  Node_02979           JUNCTION     1.07     3.07   100.19     0  04:15        0.00
  Node_02980           JUNCTION     0.93     2.87    99.95     0  04:17        0.00
  Node_02981           JUNCTION     0.86     2.82    99.77     0  04:19        0.00
  Node_02983           JUNCTION     0.11     1.15   101.27     0  04:12        0.00
  Node_02984           JUNCTION     1.80     4.06   101.04     0  04:15        0.00
  Node_03924           JUNCTION     0.13     1.00   101.82     0  01:26        0.00
  Node_03925           JUNCTION     0.41     2.06   102.42     0  04:13        0.00
  Node_03926           JUNCTION     0.06     0.96   102.43     0  04:09        0.00
  Node_03927           JUNCTION     0.39     2.04   102.42     0  04:09        0.00
  Node_03928           JUNCTION     0.41     2.08   102.42     0  04:09        0.00
  Node_03929           JUNCTION     0.42     2.09   102.40     0  04:10        0.00
  Node_03930           JUNCTION     0.44     2.13   102.38     0  04:09        0.00
  Node_03931           JUNCTION     0.43     2.12   102.37     0  04:09        0.00
  Node_03932           JUNCTION     0.47     2.15   102.31     0  04:14        0.00
  Node_03933           JUNCTION     0.47     2.13   102.25     0  04:12        0.00
  Node_03934           JUNCTION     0.15     1.39   102.25     0  04:14        0.00
  Node_03935           JUNCTION     0.54     2.17   102.14     0  04:09        0.00
  Node_03936           JUNCTION     0.56     2.12   102.05     0  04:10        0.00
  Node_03937           JUNCTION     1.24     1.77   101.93     0  04:07        0.00
  Node_03938           JUNCTION     1.62     3.27   102.46     0  01:24        0.00
  Node_03939           JUNCTION     1.73     3.41   102.45     0  01:24        0.00
  Node_03940           JUNCTION     1.80     3.48   102.41     0  01:24        0.00
  Node_03941           JUNCTION     1.89     3.53   102.34     0  01:24        0.00
  Node_03942           JUNCTION     1.92     3.53   102.28     0  04:10        0.00
  Node_03943           JUNCTION     2.02     3.58   102.19     0  01:24        0.00
  Node_03944           JUNCTION     2.11     3.69   102.17     0  01:24        0.00
  Node_03945           JUNCTION     2.17     3.78   102.20     0  01:24        0.00
  Node_03946           JUNCTION     2.23     3.90   102.26     0  01:24        0.00
  Node_03947           JUNCTION     2.43     4.34   102.23     0  04:13        0.00
  Node_03948           JUNCTION     2.33     4.37   102.22     0  04:14        0.00
  Node_03949           JUNCTION     2.39     4.50   102.20     0  04:14        0.00
  Node_03950           JUNCTION     2.22     4.39   102.16     0  04:14        0.00
  Node_03951           JUNCTION     2.13     4.39   102.08     0  04:15        0.00
  Node_03952           JUNCTION     2.06     4.37   101.96     0  04:15        0.00
  Node_03953           JUNCTION     1.87     4.22   101.80     0  04:15        0.00
  Node_03954           JUNCTION     2.65     4.94   101.52     0  04:15        0.00
  Node_03955           JUNCTION     1.50     3.68   101.17     0  04:15        0.00
  Node_04031           JUNCTION     0.37     1.03   102.26     0  01:24        0.00
  Node_04032           JUNCTION     2.12     3.89   102.25     0  04:04        0.00
  Node_04040           JUNCTION     0.85     1.88   102.42     0  01:25        0.00
  Node_04050           JUNCTION     0.32     1.62   102.58     0  02:11        0.00
  Node_04054           JUNCTION     0.10     1.28   102.42     0  04:09        0.00
  Node_04055           JUNCTION     0.23     1.50   102.31     0  04:09        0.00
  Node_04057           JUNCTION     0.25     1.60   101.91     0  01:27        0.00
  Node_04384           JUNCTION     1.68     3.98   101.56     0  04:13        0.00
  Node_04385           JUNCTION     1.42     3.72   101.64     0  04:13        0.00
  Node_04386           JUNCTION     1.44     3.72   101.66     0  04:13        0.00
  Node_04387           JUNCTION     1.46     3.73   101.70     0  04:13        0.00
  Node_04388           JUNCTION     1.48     3.75   101.75     0  04:13        0.00
  Node_04389           JUNCTION     0.21     1.39   101.75     0  04:13        0.00
  Node_04390           JUNCTION     1.48     3.74   101.75     0  04:13        0.00
  Node_04391           JUNCTION     1.51     3.72   101.78     0  04:13        0.00
  Node_04392           JUNCTION     1.63     3.83   101.79     0  04:13        0.00
  Node_04393           JUNCTION     1.53     3.70   101.81     0  04:12        0.00
  Node_04394           JUNCTION     0.47     2.17   101.81     0  04:13        0.00
  Node_04395           JUNCTION     1.54     3.67   101.82     0  04:12        0.00
  Node_04396           JUNCTION     1.55     3.63   101.83     0  04:12        0.00
  Node_04397           JUNCTION     0.38     1.94   101.83     0  04:12        0.00
  Node_04428           JUNCTION     1.58     3.62   101.83     0  04:12        0.00
  Node_04429           JUNCTION     1.59     3.59   101.83     0  04:13        0.00
  Node_04430           JUNCTION     1.59     3.55   101.83     0  04:12        0.00
  Node_04431           JUNCTION     1.38     3.25   101.82     0  04:12        0.00
  Node_04432           JUNCTION     1.30     3.14   101.82     0  04:13        0.00
  Node_04433           JUNCTION     1.12     2.94   101.82     0  04:13        0.00
  Node_04434           JUNCTION     1.41     3.22   101.81     0  04:13        0.00
  Node_04435           JUNCTION     1.27     3.02   101.80     0  04:13        0.00
  Node_04436           JUNCTION     1.67     3.40   101.80     0  04:13        0.00
  Node_04437           JUNCTION     1.80     3.49   101.78     0  04:13        0.00
  Node_04438           JUNCTION     2.10     3.78   101.79     0  04:14        0.00
  Node_04439           JUNCTION     1.16     2.82   101.79     0  04:14        0.00
  Node_04440           JUNCTION     1.15     2.79   101.81     0  04:13        0.00
  Node_04441           JUNCTION     0.89     2.48   101.81     0  04:13        0.00
  Node_04442           JUNCTION     1.23     2.84   101.81     0  04:14        0.00
  Node_04443           JUNCTION     1.09     2.68   101.82     0  04:14        0.00
  Node_04444           JUNCTION     1.08     2.65   101.82     0  04:13        0.00
  Node_04445           JUNCTION     1.02     2.57   101.83     0  04:14        0.00
  Node_04446           JUNCTION     0.99     2.51   101.84     0  04:13        0.00
  Node_04447           JUNCTION     0.93     2.41   101.85     0  04:13        0.00
  Node_04448           JUNCTION     0.94     2.43   101.89     0  01:31        0.00
  Node_04449           JUNCTION     0.96     2.46   101.91     0  01:31        0.00
  Node_04450           JUNCTION     1.11     2.60   101.92     0  01:31        0.00
  Node_04451           JUNCTION     0.93     2.39   101.94     0  01:31        0.00
  Node_04452           JUNCTION     0.67     2.14   101.96     0  01:31        0.00
  Node_04453           JUNCTION     0.44     1.75   101.97     0  01:31        0.00
  Node_04461           JUNCTION     0.88     2.29   101.91     0  01:31        0.00
  Node_04462           JUNCTION     0.87     2.30   101.95     0  01:31        0.00
  Node_04562           JUNCTION     0.76     2.46   102.05     0  01:30        0.00
  Node_04563           JUNCTION     1.11     2.92   102.04     0  01:30        0.00
  Node_04564           JUNCTION     0.90     2.68   102.06     0  01:30        0.00
  Node_04565           JUNCTION     0.92     2.72   102.08     0  01:30        0.00
  Node_04566           JUNCTION     1.06     2.87   102.07     0  01:30        0.00
  Node_04567           JUNCTION     1.02     2.83   102.05     0  01:30        0.00
  Node_04568           JUNCTION     1.03     2.84   102.02     0  01:30        0.00
  Node_04569           JUNCTION     1.19     3.04   102.01     0  01:30        0.00
  Node_04570           JUNCTION     0.69     2.28   102.02     0  01:30        0.00
  Node_04571           JUNCTION     1.21     2.99   101.92     0  01:30        0.00
  Node_04572           JUNCTION     2.59     4.42   101.95     0  01:32        0.00
  Node_04573           JUNCTION     2.26     4.11   101.95     0  04:13        0.00
  Node_04574           JUNCTION     2.44     3.66   101.96     0  04:12        0.00
  Node_04575           JUNCTION     2.75     4.64   101.96     0  04:13        0.00
  Node_04576           JUNCTION     1.36     3.31   101.96     0  04:13        0.00
  Node_04577           JUNCTION     1.39     3.35   101.94     0  04:12        0.00
  Node_04578           JUNCTION     1.43     3.41   101.92     0  04:12        0.00
  Node_04579           JUNCTION     1.50     3.48   101.89     0  04:12        0.00
  Node_04580           JUNCTION     0.66     1.98   101.76     0  01:31        0.00
  Node_04623           JUNCTION     0.28     1.97   101.63     0  04:13        0.00
  Node_04624           JUNCTION     0.69     2.37   101.83     0  04:13        0.00
  Node_04643           JUNCTION     0.61     2.02   101.92     0  01:31        0.00
  Node_04644           JUNCTION     0.60     1.98   101.82     0  04:13        0.00
  Node_04645           JUNCTION     0.81     2.05   101.65     0  01:31        0.00
  Node_04678           JUNCTION     0.50     2.11   101.84     0  04:12        0.00
  Node_04679           JUNCTION     0.12     1.45   101.63     0  04:13        0.00
  Node_04680           JUNCTION     1.43     3.73   101.50     0  04:13        0.00
  Node_04681           JUNCTION     1.39     3.69   101.41     0  04:13        0.00
  Node_04682           JUNCTION     0.18     0.95   101.96     0  04:13        0.00
  Node_04710           JUNCTION     0.38     1.93   101.92     0  04:44        0.00
  Node_04711           JUNCTION     0.44     2.61   102.60     0  04:49        0.00
  Node_04712           JUNCTION     0.46     2.61   102.62     0  04:09        0.00
  Node_04713           JUNCTION     0.41     2.58   102.63     0  04:30        0.00
  Node_04714           JUNCTION     0.47     2.60   102.65     0  04:26        0.00
  Node_04715           JUNCTION     0.44     2.52   102.61     0  04:26        0.00
  Node_04716           JUNCTION     0.45     2.46   102.59     0  04:25        0.00
  Node_04717           JUNCTION     0.16     1.37   101.67     0  04:10        0.00
  Node_04721           JUNCTION     0.42     1.60   101.95     0  04:13        0.00
  Node_04759           JUNCTION     0.45     1.78   101.96     0  04:13        0.00
  Node_04760           JUNCTION     0.16     0.92   100.38     0  04:15        0.00
  Node_04764           JUNCTION     0.55     1.59   101.51     0  01:31        0.00
  Node_04765           JUNCTION     0.40     1.51   101.93     0  01:31        0.00
  Node_04766           JUNCTION     0.71     2.26   102.03     0  01:30        0.00
  Node_04767           JUNCTION     0.68     2.26   102.09     0  01:30        0.00
  Node_04768           JUNCTION     0.76     2.35   102.01     0  01:30        0.00
  Node_04854           JUNCTION     0.14     1.35   101.79     0  04:12        0.00
  Node_04855           JUNCTION     0.84     2.04   101.96     0  04:13        0.00
  Node_05283           JUNCTION     2.04     3.66   102.28     0  01:24        0.00
  Node_05284           JUNCTION     2.02     3.61   102.27     0  01:24        0.00
  Node_05285           JUNCTION     1.98     3.47   102.22     0  01:24        0.00
  Node_05286           JUNCTION     1.95     3.42   102.22     0  01:24        0.00
  Node_05287           JUNCTION     1.93     3.42   102.27     0  01:24        0.00
  Node_05288           JUNCTION     1.92     3.41   102.28     0  01:24        0.00
  Node_05289           JUNCTION     1.41     2.70   102.22     0  01:24        0.00
  Node_05290           JUNCTION     1.91     3.40   102.29     0  01:24        0.00
  Node_05291           JUNCTION     1.71     3.19   102.39     0  01:25        0.00
  Node_05292           JUNCTION     1.68     3.17   102.42     0  01:25        0.00
  Node_05293           JUNCTION     1.67     3.17   102.42     0  01:25        0.00
  Node_05294           JUNCTION     1.64     3.13   102.44     0  01:25        0.00
  Node_05295           JUNCTION     1.67     3.17   102.44     0  01:25        0.00
  Node_05296           JUNCTION     1.65     3.14   102.46     0  01:25        0.00
  Node_05297           JUNCTION     1.45     2.79   102.30     0  01:24        0.00
  Node_05298           JUNCTION     1.60     3.06   102.45     0  01:25        0.00
  Node_05299           JUNCTION     1.59     3.06   102.47     0  01:25        0.00
  Node_05300           JUNCTION     1.57     3.00   102.45     0  01:25        0.00
  Node_05301           JUNCTION     1.53     2.93   102.42     0  01:25        0.00
  Node_05302           JUNCTION     1.54     2.95   102.45     0  01:25        0.00
  Node_05303           JUNCTION     1.50     2.88   102.43     0  01:25        0.00
[...]
  Link_02383                  3.40      3.40      3.52      0.01         0.01
  Link_02384                  3.52      3.52      3.55      0.01         0.01
  Link_02385                  3.56      3.56      3.56      0.01         0.19
  Link_02386                  2.13      2.13      2.27      0.01         0.01
  Link_02387                  3.57      3.57      3.66      0.01         0.01
  Link_02388                  3.67      3.67      3.70      0.01         0.02
  Link_02389                  2.73      2.73      3.54      0.01         0.01
  Link_02390                  3.71      3.71      3.74      0.01         0.03
  Link_02391                  3.74      3.74      3.92      0.01         0.01
  Link_02392                  2.71      2.71      3.15      0.01         0.01
  Link_02393                  3.92      3.92      3.94      0.39         0.37
  Link_05459                  1.03      1.03      1.51      0.04         0.01
  Link_05460                  2.21      2.21      2.30      0.01         0.02
  Link_05461                  3.02      3.02      3.06      0.07         0.10
  Link_05462                  3.31      3.31      3.35      1.50         1.46
  Link_05463                  3.43      3.44      3.45      2.19         2.13
  Link_05464                  2.78      2.78      2.78      0.01         0.80
  Link_05496                  4.59      4.61      4.59      4.64         4.59
  Link_05662                  0.87      0.87      1.11      0.01         0.02
  Link_05663                  1.80      1.80      2.66      0.01         0.01
  Link_05664                  4.42      4.42      4.43      0.04         0.05
  Link_05665                  4.47      4.58      4.47      4.94         4.47
  Link_05677                  4.42      4.43      4.42      4.23         4.07
  Link_05678                  3.02      3.02      3.02      0.01         0.01
  Link_05720                  4.20      4.21      4.22      3.58         3.42
  Link_05721                  4.15      4.16      4.17      2.91         2.98
  Link_05722                  1.96      1.96      2.06      0.01         0.01
  Link_05726                  3.95      3.95      3.99      0.01         0.01
  Link_05727                  3.94      3.94      3.95      0.01         0.04
  Link_05728                  3.66      3.66      3.68      0.02         0.01
  Link_05729                  3.41      3.41      3.41      3.01         2.13
  Link_05731                  0.18      0.19      0.18      0.65         0.18
  Link_05742                  2.31      2.31      2.48      0.01         0.01
  Link_05743                  3.94      3.94      3.97      0.01         0.02
  Link_05744                  4.19      4.19      4.27      0.13         0.13
  Link_05752                  1.93      1.93      1.95      0.40         0.01
  Link_05812                  3.96      3.96      4.12      0.01         0.01
  Link_05813                  3.67      3.67      3.71      0.01         0.01
  Link_05814                  3.45      3.45      3.48      0.03         0.01
  Link_05815                  3.37      3.37      3.40      0.01         0.01
  Link_05983                  0.35      0.35      0.38      0.01         0.01
  Link_05984                  0.16      0.16      0.19      0.01         0.01
  Link_07220                  1.81      1.81      1.85      0.12         0.19
  Link_07221                  1.85      1.85      1.85      1.10         1.08
  Link_07222                  1.84      1.85      1.84      1.43         1.36
  Link_07230                  1.79      1.84      1.82      1.04         0.91
  Link_07231                  1.68      1.82      1.68      1.97         1.51
  Link_07233                  1.88      2.22      1.88      2.83         1.88
  Link_07234                  2.04      2.11      2.04      3.60         2.04
  Link_07235                  2.27      2.27      2.31      0.68         0.66
  Link_07270                  0.51      0.51      0.78      0.01         0.01
  Link_07271                  0.77      0.78      1.14      0.02         0.06
  Link_07274                  0.45      0.45      0.46      0.01         0.03
  Link_07277                  1.33      1.34      1.58      0.06         0.10
  Link_07278                  1.63      1.66      1.69      0.09         0.15
  Link_07295                  1.67      1.69      1.76      0.13         0.12
  Link_07296                  1.76      1.76      1.80      0.49         0.30
  Link_07297                  1.80      1.80      1.81      1.03         1.04
  Link_07303                  1.58      1.58      1.62      0.01         0.04
  Link_07306                  0.78      0.78      1.41      0.01         0.01
  Link_07464                  3.51      3.51      3.53      0.01         0.01
  Link_07578                  2.31      2.31      2.39      0.01         0.01
  Link_07579                  3.28      3.28      3.39      0.01         0.01
  Link_07580                  3.05      3.05      3.28      0.01         0.01
  Link_07687                  3.66      3.66      3.69      0.01         0.01
  Link_08891                  1.45      1.45      2.13      0.01         0.01
  Link_08912                  0.35      0.35      2.38      0.01         0.01
  Link1_to_ChengXi            2.61      3.06      2.82      0.79         0.30
  Link2_to_ChengXi            1.93      4.83      1.93      4.96         1.93
  Link3_to_ChengXi            0.01      2.16      0.01      2.29         0.01
  
  
  ***************
  Pumping Summary
  ***************
  
  ---------------------------------------------------------------------------------------------------------
                                                  Min       Avg       Max     Total     Power    % Time Off
                        Percent   Number of      Flow      Flow      Flow    Volume     Usage    Pump Curve
  Pump                 Utilized   Start-Ups       CMS       CMS       CMS  10^6 ltr     Kw-hr    Low   High
  ---------------------------------------------------------------------------------------------------------
  Pump_ChengXi1           83.91         228      0.00      0.17      0.17     3.027     42.09    0.0    0.0
  Pump_ChengXi2           83.91         229      0.00      0.17      0.17     3.027     42.09    0.0    0.0
  Pump_ChengXi3           83.91         229      0.00      0.17      0.17     3.027     42.09    0.0    0.0
  Pump_ChengXi4           83.91         229      0.00      0.17      0.17     3.027     42.09    0.0    0.0
  Pump_LaoDongLu1        100.00           0      0.00      0.02      0.03     0.477      9.24    0.0    0.0
  Pump_LaoDongLu2        100.00           1      0.00      0.02      0.03     0.477      9.24    0.0    0.0
  Pump_LaoDongLu3        100.00           1      0.00      0.02      0.03     0.477      9.24    0.0    0.0
  outfallpump             98.45          66      0.00      0.40      0.45     8.443    176.79    0.0    0.0
  
  
  ***************************
  Link Pollutant Load Summary
  ***************************
  
  ----------------------------------
                                 COD
  Link                            kg
  ----------------------------------
  Link_01146                  33.530
  Link_01147                  43.895
  Link_01148                  54.067
  Link_01149                  63.285
  Link_01150                  73.292
  Link_01151                  67.746
  Link_01152                  60.483
  Link_01274                  12.027
  Link_01275                  22.716
  Link_01276                  49.273
  Link_01292                  16.488
  Link_01294                  69.751
  Link_01295                  79.497
  Link_01296                  89.654
  Link_01297                 115.323
  Link_01298                  11.984
  Link_01299                 137.651
  Link_01300                 147.915
  Link_01301                 158.153
  Link_01302                  11.925
  Link_01312                  15.581
  Link_01313                 373.692
  Link_01314                 384.411
  Link_01315                 394.922
  Link_01316                 405.483
  Link_01317                 416.083
  Link_01318                 427.193
  Link_01319                 438.390
  Link_01320                 485.343
  Link_01323                 255.733
  Link_01324                  14.253
  Link_01325                 280.210
  Link_01326                 290.736
  Link_01327                 244.461
  Link_01328                  14.295
  Link_01329                 264.216
  Link_01330                 272.989
  Link_01331                 283.164
  Link_01332                 197.887
  Link_01333                  14.041
  Link_01334                 222.086
  Link_01335                  16.095
  Link_01336                 248.225
  Link_01337                 163.009
  Link_01338                  14.639
  Link_01339                 141.734
  Link_01340                  12.189
  Link_01341                 133.141
  Link_01342                  13.754
  Link_01343                 142.023
  Link_01344                  23.767
  Link_01345                 153.114
  Link_01346                 158.749
  Link_01347                  24.140
  Link_01348                 153.319
  Link_01349                  22.742
  Link_01350                 158.412
  Link_01351                  14.819
  Link_01352                 167.702
  Link_01556                  17.660
  Link_01557                  35.951
  Link_01558                2305.139
  Link_01559                  34.897
  Link_01560                2294.339
  Link_01561                2352.228
  Link_01562                2364.198
  Link_01563                2375.036
  Link_01564                  10.281
  Link_01565                 129.424
  Link_01566                  11.065
  Link_01567                  13.867
  Link_01568                 140.758
  Link_01569                  21.591
  Link_01570                 153.073
  Link_01571                 138.584
  Link_01572                 186.758
  Link_01573                 117.911
  Link_01574                 107.370
  Link_01575                  15.468
  Link_01576                  82.214
  Link_01577                  57.472
  Link_01578                  45.717
  Link_01579                  14.443
  Link_01580                   6.580
  Link_01581                   9.654
  Link_01582                   6.577
  Link_01731                  25.653
  Link_01732                  44.104
  Link_01733                  57.658
  Link_01734                  20.485
  Link_01735                  15.151
  Link_01751                 101.604
  Link_01752                 110.062
  Link_01753                 130.172
  Link_01754                 139.234
  Link_01755                 149.622
  Link_01756                  12.226
  Link_01757                 182.714
  Link_01758                  13.275
  Link_01759                  13.353
  Link_01760                 206.036
  Link_01761                 212.427
  Link_01762                 219.908
  Link_01763                  18.379
  Link_01764                 236.993
  Link_01765                 245.646
  Link_01766                 246.990
  Link_01767                 414.997
  Link_01768                 422.838
  Link_01769                 433.231
  Link_01770                 442.159
  Link_01771                 450.827
  Link_01772                  31.425
  Link_01773                 484.885
  Link_01774                  34.877
  Link_01775                 208.600
  Link_01776                 194.845
  Link_01777                 180.639
  Link_01778                 268.887
  Link_01779                 141.673
  Link_01780                 298.782
  Link_01781                  63.778
  Link_01782                 549.225
  Link_01783                  13.456
  Link_01784                 572.791
  Link_01785                 583.955
  Link_01786                  63.923
  Link_01787                  35.041
  Link_01788                 690.957
  Link_01789                 703.327
  Link_01790                  19.200
  Link_01791                  18.229
  Link_01792                  18.059
  Link_01793                 760.870
  Link_01794                 772.057
  Link_01795                 783.102
  Link_01796                 794.432
  Link_01797                 804.109
  Link_01798                1410.673
  Link_01799                1402.314
  Link_01800                1420.427
  Link_01801                 848.340
  Link_01802                1345.344
  Link_01803                1391.381
  Link_01804                1220.197
  Link_01805                1208.353
  Link_01806                1196.146
  Link_01807                1183.109
  Link_01808                  17.172
  Link_01809                1152.984
  Link_01810                1129.059
  Link_01811                  10.146
  Link_01812                  54.969
  Link_01813                  45.672
  Link_01814                1083.419
  Link_01815                1070.377
  Link_01816                1045.119
  Link_01817                  11.971
  Link_01818                1003.875
  Link_01819                 975.471
  Link_01820                  15.395
  Link_01821                  28.291
  Link_01822                   6.556
  Link_01823                 222.167
  Link_01824                 218.757
  Link_01825                  59.108
  Link_01826                  62.285
  Link_01827                   3.034
  Link_01828                  68.547
  Link_01829                   6.538
  Link_01830                  78.365
  Link_01831                   3.034
  Link_01832                  84.642
  Link_01833                  87.826
  Link_01834                  94.197
  Link_01835                   3.034
  Link_01836                  47.506
  Link_01837                  20.903
  Link_01838                  33.810
  Link_01839                  44.233
  Link_01840                  41.160
  Link_01841                  38.087
  Link_01842                  30.209
  Link_01843                  23.973
  Link_01844                  20.895
  Link_02074                  13.738
  Link_02075                 186.983
  Link_02076                 210.021
  Link_02077                  24.035
  Link_02078                 244.396
  Link_02079                  15.610
  Link_02080                 270.626
  Link_02081                 281.125
  Link_02082                 291.687
  Link_02083                  15.654
  Link_02084                  14.015
  Link_02085                 656.259
  Link_02086                 637.432
  Link_02087                 627.842
  Link_02088                 618.327
  Link_02089                 609.219
  Link_02090                 614.384
  Link_02091                 602.942
  Link_02092                 591.328
  Link_02093                  13.665
  Link_02094                 554.184
  Link_02095                 542.557
  Link_02096                 511.902
  Link_02097                  20.696
  Link_02098                  36.737
  Link_02099                 500.296
  Link_02100                 488.880
  Link_02101                  27.634
  Link_02102                 462.564
  Link_02103                 432.687
  Link_02104                  28.789
  Link_02105                 341.494
  Link_02106                  17.892
  Link_02107                  10.234
  Link_02108                 329.092
  Link_02109                 316.973
  Link_02110                 323.314
  Link_02111                 212.134
  Link_02112                  19.034
  Link_02113                 154.852
  Link_02114                  45.905
  Link_02115                  42.724
  Link_02116                  39.612
  Link_02117                  36.560
  Link_02118                  33.474
  Link_02123                   6.578
  Link_02124                   9.642
  Link_02125                  12.712
  Link_02126                  15.713
  Link_02127                  30.370
  Link_02128                  27.281
  Link_02129                  24.233
  Link_02130                  21.183
  Link_02131                  18.090
  Link_02132                  14.995
  Link_02133                  11.904
  Link_02134                 158.069
  Link_02135                 161.288
  Link_02136                 171.077
  Link_02137                   6.573
  Link_02138                 196.900
  Link_02139                 193.682
  Link_02140                 190.396
  Link_02141                 187.295
  Link_02142                 183.949
  Link_02143                 174.267
  Link_02383                  10.704
  Link_02384                  17.590
  Link_02385                  27.461
  Link_02386                  28.065
  Link_02387                  65.945
  Link_02388                  75.644
  Link_02389                  26.783
  Link_02390                  85.738
  Link_02391                 122.370
  Link_02392                  39.979
  Link_02393                 171.383
  Link_05459                  93.550
  Link_05460                 200.320
  Link_05461                 241.864
  Link_05462                 525.600
  Link_05463                 749.823
  Link_05464                  49.853
  Link_05496                2280.997
  Link_05662                  59.588
  Link_05663                  12.035
  Link_05664                  64.590
  Link_05665                 496.232
  Link_05677                 343.412
  Link_05678                  20.848
  Link_05720                1333.188
  Link_05721                1116.381
  Link_05722                  18.987
  Link_05723                 105.722
  Link_05725                  18.828
  Link_05726                 666.211
  Link_05727                  11.947
  Link_05728                 565.975
  Link_05729                 473.646
  Link_05730                 319.962
  Link_05731                 215.214
  Link_05732                 208.996
  Link_05742                  28.394
  Link_05743                 158.076
  Link_05744                 302.680
  Link_05752                  73.779
  Link_05753                   4.811
  Link_05754                  27.073
  Link_05791                   6.550
  Link_05812                 255.197
  Link_05813                 147.561
  Link_05814                 125.726
  Link_05815                 146.722
  Link_05816                  22.379
  Link_05817                  32.108
  Link_05818                  11.878
  Link_05983                  32.689
  Link_05984                  22.515
  Link_06039                   3.030
  Link_07220                 190.201
  Link_07221                 200.429
  Link_07222                 217.441
  Link_07230                 227.881
  Link_07231                 238.368
  Link_07233                 433.018
  Link_07234                 443.534
  Link_07235                 185.242
  Link_07270                  45.131
  Link_07271                  78.059
  Link_07274                  24.304
  Link_07277                 111.110
  Link_07278                 142.646
  Link_07295                 134.509
  Link_07296                 150.662
  Link_07297                 179.773
  Link_07303                  14.303
  Link_07306                  31.953
  Link_07321                  11.911
  Link_07464                  24.761
  Link_07578                  27.769
  Link_07579                 421.028
  Link_07580                 380.830
  Link_07687                  22.625
  Link_07865                  11.877
  Link_08891                  15.654
  Link_08912                  37.207
  Link1_to_ChengXi          2386.667
  Link2_to_ChengXi           510.781
  Link3_to_ChengXi           454.430
  Link_to_LaoDongLu          326.517
  Pump_ChengXi1              864.267
  Pump_ChengXi2              864.267
  Pump_ChengXi3              864.267
  Pump_ChengXi4              864.267
  Pump_LaoDongLu1            101.819
  Pump_LaoDongLu2            101.819
  Pump_LaoDongLu3            101.819
  outfallpump               2455.796
  

  Analysis begun on:  Sat Sep  4 16:45:11 2021
  Analysis ended on:  Sat Sep  4 16:45:13 2021
  Total elapsed time: 00:00:02