
  EPA STORM WATER MANAGEMENT MODEL - VERSION 5.1 (Build 5.3.0.dev0)
  --------------------------------------------------------------

  WARNING 04: minimum elevation drop used for Conduit Link_01776
  WARNING 04: minimum elevation drop used for Conduit Link_01779
  WARNING 04: minimum elevation drop used for Conduit Link_07234
  WARNING 02: maximum depth increased for Node Node_06087
  
  *********************************************************
  NOTE: The summary statistics displayed in this report are
  based on results found at every computational time step,  
  not just on results from each reporting time step.
  *********************************************************
  
  ****************
  Analysis Options
  ****************
  Flow Units ............... CMS
  Process Models:
    Rainfall/Runoff ........ YES
    RDII ................... NO
    Snowmelt ............... NO
    Groundwater ............ NO
    Flow Routing ........... YES
    Ponding Allowed ........ YES
    Water Quality .......... YES
  Infiltration Method ...... HORTON
  Flow Routing Method ...... DYNWAVE
  Surcharge Method ......... EXTRAN
  Starting Date ............ 01/02/2011 00:00:00
  Ending Date .............. 01/02/2011 06:00:00
  Antecedent Dry Days ...... 0.0
  Report Time Step ......... 00:15:00
  Wet Time Step ............ 00:05:00
  Dry Time Step ............ 01:00:00
  Routing Time Step ........ 60.00 sec
  Variable Time Step ....... YES
  Maximum Trials ........... 8
  Number of Threads ........ 4
  Head Tolerance ........... 0.001500 m
  
  
  **************************        Volume         Depth
  Runoff Quantity Continuity     hectare-m            mm
  **************************     ---------       -------
  Total Precipitation ......         1.645        57.500
  Evaporation Loss .........         0.000         0.000
  Infiltration Loss ........         0.050         1.751
  Surface Runoff ...........         1.596        55.819
  Final Storage ............         0.000         0.009
  Continuity Error (%) .....        -0.138
  
  
  **************************           COD
  Runoff Quality Continuity             kg
  **************************    ----------
  Initial Buildup ..........         0.000
  Surface Buildup ..........         0.000
  Wet Deposition ...........      4325.060
  Sweeping Removal .........         0.000
  Infiltration Loss ........       131.727
  BMP Removal ..............         0.000
  Surface Runoff ...........      4198.608
  Remaining Buildup ........         0.706
  Continuity Error (%) .....        -0.138
  
  
  **************************        Volume        Volume
  Flow Routing Continuity        hectare-m      10^6 ltr
  **************************     ---------     ---------
  Dry Weather Inflow .......         0.153         1.529
  Wet Weather Inflow .......         1.596        15.964
  Groundwater Inflow .......         0.000         0.000
  RDII Inflow ..............         0.000         0.000
  External Inflow ..........         0.000         0.000
  External Outflow .........         0.738         7.383
  Flooding Loss ............         0.878         8.781
  Evaporation Loss .........         0.000         0.000
  Exfiltration Loss ........         0.000         0.000
  Initial Stored Volume ....         0.077         0.773
  Final Stored Volume ......         0.314         3.141
  Continuity Error (%) .....        -5.689
  
  
  **************************           COD
  Quality Routing Continuity            kg
  **************************    ----------
  Dry Weather Inflow .......       845.606
  Wet Weather Inflow .......      4198.592
  Groundwater Inflow .......         0.000
  RDII Inflow ..............         0.000
  External Inflow ..........         0.000
  External Outflow .........      2332.728
  Flooding Loss ............      2335.175
  Exfiltration Loss ........         0.000
  Mass Reacted .............         0.000
  Initial Stored Mass ......       427.257
  Final Stored Mass ........       844.850
  Continuity Error (%) .....        -0.755
  
  
  *************************
  Highest Continuity Errors
  *************************
  Node Node_07272 (-53.84%)
  Node Node_04713 (-45.53%)
  Node Node_04715 (-24.58%)
  Node Node_04714 (-23.89%)
  Node Node_04456 (-17.42%)
  
  
  ***************************
  Time-Step Critical Elements
  ***************************
  Link Link_01778 (40.02%)
  Link Link_01292 (22.59%)
  Link Link_06039 (17.64%)
  Link Link_02129 (6.88%)
  Link Link_02077 (2.59%)
  
  
  ********************************
  Highest Flow Instability Indexes
  ********************************
  Link Link_01558 (79)
  Link Link_01324 (77)
  Link Link_01778 (72)
  Link Link_01559 (71)
  Link Link_01582 (69)
  
  
  *************************
  Routing Time Step Summary
  *************************
  Minimum Time Step           :     5.00 sec
  Average Time Step           :     5.00 sec
  Maximum Time Step           :     5.00 sec
  Percent in Steady State     :     0.00
  Average Iterations per Step :     6.83
  Percent Not Converging      :    69.93
  
  
  ***************************
  Subcatchment Runoff Summary
  ***************************
  
  ------------------------------------------------------------------------------------------------------------------------------
                            Total      Total      Total      Total     Imperv       Perv      Total       Total     Peak  Runoff
                           Precip      Runon       Evap      Infil     Runoff     Runoff     Runoff      Runoff   Runoff   Coeff
  Subcatchment                 mm         mm         mm         mm         mm         mm         mm    10^6 ltr      CMS
  ------------------------------------------------------------------------------------------------------------------------------
  2707                      57.50       0.00       0.00       1.76      14.38      41.44      55.82        0.06     0.01   0.971
  2708                      57.50       0.00       0.00       1.76      14.38      41.44      55.82        0.06     0.01   0.971
  2709                      57.50       0.00       0.00       1.76      14.38      41.44      55.82        0.06     0.01   0.971
  2710                      57.50       0.00       0.00       1.76      14.38      41.44      55.82        0.06     0.01   0.971
  2712                      57.50       0.00       0.00       1.76      14.38      41.44      55.82        0.06     0.01   0.971
  2713                      57.50       0.00       0.00       1.76      14.38      41.44      55.82        0.06     0.01   0.971
  2714                      57.50       0.00       0.00       1.76      14.38      41.44      55.82        0.06     0.01   0.971
  2715                      57.50       0.00       0.00       1.76      14.38      41.44      55.82        0.06     0.01   0.971
  2716                      57.50       0.00       0.00       1.76      14.38      41.44      55.82        0.06     0.01   0.971
  2717                      57.50       0.00       0.00       1.76      14.38      41.44      55.82        0.06     0.01   0.971
  2718                      57.50       0.00       0.00       1.76      14.38      41.44      55.82        0.06     0.01   0.971
  2719                      57.50       0.00       0.00       1.76      14.38      41.44      55.82        0.06     0.01   0.971
  2721                      57.50       0.00       0.00       1.76      14.38      41.44      55.82        0.06     0.01   0.971
  2722                      57.50       0.00       0.00       1.76      14.38      41.44      55.82        0.06     0.01   0.971
  2723                      57.50       0.00       0.00       1.76      14.38      41.44      55.82        0.06     0.01   0.971
  2724                      57.50       0.00       0.00       1.76      14.38      41.44      55.82        0.06     0.01   0.971
  2725                      57.50       0.00       0.00       1.76      14.38      41.44      55.82        0.06     0.01   0.971
  2726                      57.50       0.00       0.00       1.76      14.38      41.44      55.82        0.06     0.01   0.971
  2727                      57.50       0.00       0.00       1.76      14.38      41.44      55.82        0.06     0.01   0.971
  2728                      57.50       0.00       0.00       1.76      14.38      41.44      55.82        0.06     0.01   0.971
  2729                      57.50       0.00       0.00       1.76      14.38      41.44      55.82        0.06     0.01   0.971
  2730                      57.50       0.00       0.00       1.76      14.38      41.44      55.82        0.06     0.01   0.971
  2731                      57.50       0.00       0.00       1.76      14.38      41.44      55.82        0.06     0.01   0.971
  2732                      57.50       0.00       0.00       1.76      14.38      41.44      55.82        0.06     0.01   0.971
  2733                      57.50       0.00       0.00       1.76      14.38      41.44      55.82        0.06     0.01   0.971
  2734                      57.50       0.00       0.00       1.76      14.38      41.44      55.82        0.06     0.01   0.971
  2735                      57.50       0.00       0.00       1.76      14.38      41.44      55.82        0.06     0.01   0.971
  2736                      57.50       0.00       0.00       1.76      14.38      41.44      55.82        0.06     0.01   0.971
  2737                      57.50       0.00       0.00       1.76      14.38      41.44      55.82        0.06     0.01   0.971
  2738                      57.50       0.00       0.00       1.76      14.38      41.44      55.82        0.06     0.01   0.971
  2739                      57.50       0.00       0.00       1.76      14.38      41.44      55.82        0.06     0.01   0.971
  2740                      57.50       0.00       0.00       1.76      14.38      41.44      55.82        0.06     0.01   0.971
  2741                      57.50       0.00       0.00       1.76      14.38      41.44      55.82        0.06     0.01   0.971
  2742                      57.50       0.00       0.00       1.76      14.38      41.44      55.82        0.06     0.01   0.971
  2743                      57.50       0.00       0.00       1.76      14.38      41.44      55.82        0.06     0.01   0.971
  2744                      57.50       0.00       0.00       1.76      14.38      41.44      55.82        0.06     0.01   0.971
  2745                      57.50       0.00       0.00       1.76      14.38      41.44      55.82        0.06     0.01   0.971
  2746                      57.50       0.00       0.00       1.76      14.38      41.44      55.82        0.06     0.01   0.971
  2747                      57.50       0.00       0.00       1.76      14.38      41.44      55.82        0.06     0.01   0.971
  2748                      57.50       0.00       0.00       1.76      14.38      41.44      55.82        0.06     0.01   0.971
  2749                      57.50       0.00       0.00       1.76      14.38      41.44      55.82        0.06     0.01   0.971
  2750                      57.50       0.00       0.00       1.76      14.38      41.44      55.82        0.06     0.01   0.971
  2751                      57.50       0.00       0.00       1.76      14.38      41.44      55.82        0.06     0.01   0.971
  2752                      57.50       0.00       0.00       1.76      14.38      41.44      55.82        0.06     0.01   0.971
  2753                      57.50       0.00       0.00       1.76      14.38      41.44      55.82        0.06     0.01   0.971
  2754                      57.50       0.00       0.00       1.76      14.38      41.44      55.82        0.06     0.01   0.971
  2755                      57.50       0.00       0.00       1.76      14.38      41.44      55.82        0.06     0.01   0.971
  2756                      57.50       0.00       0.00       1.76      14.38      41.44      55.82        0.06     0.01   0.971
  2964                      57.50       0.00       0.00       1.76      14.38      41.44      55.82        0.06     0.01   0.971
  2969                      57.50       0.00       0.00       1.76      14.38      41.44      55.82        0.06     0.01   0.971
  2970                      57.50       0.00       0.00       1.76      14.38      41.44      55.82        0.06     0.01   0.971
  2974                      57.50       0.00       0.00       1.76      14.38      41.44      55.82        0.06     0.01   0.971
  2975                      57.50       0.00       0.00       1.76      14.38      41.44      55.82        0.06     0.01   0.971
  2976                      57.50       0.00       0.00       1.76      14.38      41.44      55.82        0.06     0.01   0.971
  2977                      57.50       0.00       0.00       1.76      14.38      41.44      55.82        0.06     0.01   0.971
  2978                      57.50       0.00       0.00       1.76      14.38      41.44      55.82        0.06     0.01   0.971
  2979                      57.50       0.00       0.00       1.76      14.38      41.44      55.82        0.06     0.01   0.971
  2980                      57.50       0.00       0.00       1.76      14.38      41.44      55.82        0.06     0.01   0.971
  2981                      57.50       0.00       0.00       1.76      14.38      41.44      55.82        0.06     0.01   0.971
  2982                      57.50       0.00       0.00       1.76      14.38      41.44      55.82        0.06     0.01   0.971
  2984                      57.50       0.00       0.00       1.76      14.38      41.44      55.82        0.06     0.01   0.971
  2985                      57.50       0.00       0.00       1.76      14.38      41.44      55.82        0.06     0.01   0.971
  3925                      57.50       0.00       0.00       1.76      14.38      41.44      55.82        0.06     0.01   0.971
  3926                      57.50       0.00       0.00       1.76      14.38      41.44      55.82        0.06     0.01   0.971
  3927                      57.50       0.00       0.00       1.76      14.38      41.44      55.82        0.06     0.01   0.971
  3928                      57.50       0.00       0.00       1.76      14.38      41.44      55.82        0.06     0.01   0.971
  3929                      57.50       0.00       0.00       1.76      14.38      41.44      55.82        0.06     0.01   0.971
  3930                      57.50       0.00       0.00       1.76      14.38      41.44      55.82        0.06     0.01   0.971
  3931                      57.50       0.00       0.00       1.76      14.38      41.44      55.82        0.06     0.01   0.971
  3932                      57.50       0.00       0.00       1.76      14.38      41.44      55.82        0.06     0.01   0.971
  3933                      57.50       0.00       0.00       1.76      14.38      41.44      55.82        0.06     0.01   0.971
  3934                      57.50       0.00       0.00       1.76      14.38      41.44      55.82        0.06     0.01   0.971
  3935                      57.50       0.00       0.00       1.76      14.38      41.44      55.82        0.06     0.01   0.971
  3936                      57.50       0.00       0.00       1.76      14.38      41.44      55.82        0.06     0.01   0.971
  3937                      57.50       0.00       0.00       1.76      14.38      41.44      55.82        0.06     0.01   0.971
  3938                      57.50       0.00       0.00       1.76      14.38      41.44      55.82        0.06     0.01   0.971
  3939                      57.50       0.00       0.00       1.76      14.38      41.44      55.82        0.06     0.01   0.971
  3940                      57.50       0.00       0.00       1.76      14.38      41.44      55.82        0.06     0.01   0.971
  3941                      57.50       0.00       0.00       1.76      14.38      41.44      55.82        0.06     0.01   0.971
  3942                      57.50       0.00       0.00       1.76      14.38      41.44      55.82        0.06     0.01   0.971
  3943                      57.50       0.00       0.00       1.76      14.38      41.44      55.82        0.06     0.01   0.971
  3944                      57.50       0.00       0.00       1.76      14.38      41.44      55.82        0.06     0.01   0.971
  3945                      57.50       0.00       0.00       1.76      14.38      41.44      55.82        0.06     0.01   0.971
  3946                      57.50       0.00       0.00       1.76      14.38      41.44      55.82        0.06     0.01   0.971
  3947                      57.50       0.00       0.00       1.76      14.38      41.44      55.82        0.06     0.01   0.971
  3948                      57.50       0.00       0.00       1.76      14.38      41.44      55.82        0.06     0.01   0.971
  3949                      57.50       0.00       0.00       1.76      14.38      41.44      55.82        0.06     0.01   0.971
  3950                      57.50       0.00       0.00       1.76      14.38      41.44      55.82        0.06     0.01   0.971
  3951                      57.50       0.00       0.00       1.76      14.38      41.44      55.82        0.06     0.01   0.971
  3952                      57.50       0.00       0.00       1.76      14.38      41.44      55.82        0.06     0.01   0.971
  3953                      57.50       0.00       0.00       1.76      14.38      41.44      55.82        0.06     0.01   0.971
  3954                      57.50       0.00       0.00       1.76      14.38      41.44      55.82        0.06     0.01   0.971
  3955                      57.50       0.00       0.00       1.76      14.38      41.44      55.82        0.06     0.01   0.971
  3956                      57.50       0.00       0.00       1.76      14.38      41.44      55.82        0.06     0.01   0.971
  4032                      57.50       0.00       0.00       1.76      14.38      41.44      55.82        0.06     0.01   0.971
  4033                      57.50       0.00       0.00       1.76      14.38      41.44      55.82        0.06     0.01   0.971
  4041                      57.50       0.00       0.00       1.76      14.38      41.44      55.82        0.06     0.01   0.971
  4051                      57.50       0.00       0.00       1.76      14.38      41.44      55.82        0.06     0.01   0.971
  4055                      57.50       0.00       0.00       1.76      14.38      41.44      55.82        0.06     0.01   0.971
  4056                      57.50       0.00       0.00       1.76      14.38      41.44      55.82        0.06     0.01   0.971
  4058                      57.50       0.00       0.00       1.76      14.38      41.44      55.82        0.06     0.01   0.971
  4385                      57.50       0.00       0.00       1.76      14.38      41.44      55.82        0.06     0.01   0.971
  4386                      57.50       0.00       0.00       1.76      14.38      41.44      55.82        0.06     0.01   0.971
  4387                      57.50       0.00       0.00       1.76      14.38      41.44      55.82        0.06     0.01   0.971
  4388                      57.50       0.00       0.00       1.76      14.38      41.44      55.82        0.06     0.01   0.971
  4389                      57.50       0.00       0.00       1.76      14.38      41.44      55.82        0.06     0.01   0.971
  4390                      57.50       0.00       0.00       1.76      14.38      41.44      55.82        0.06     0.01   0.971
  4391                      57.50       0.00       0.00       1.76      14.38      41.44      55.82        0.06     0.01   0.971
  4392                      57.50       0.00       0.00       1.76      14.38      41.44      55.82        0.06     0.01   0.971
  4393                      57.50       0.00       0.00       1.76      14.38      41.44      55.82        0.06     0.01   0.971
  4394                      57.50       0.00       0.00       1.76      14.38      41.44      55.82        0.06     0.01   0.971
  4395                      57.50       0.00       0.00       1.76      14.38      41.44      55.82        0.06     0.01   0.971
  4396                      57.50       0.00       0.00       1.76      14.38      41.44      55.82        0.06     0.01   0.971
  4397                      57.50       0.00       0.00       1.76      14.38      41.44      55.82        0.06     0.01   0.971
  4398                      57.50       0.00       0.00       1.76      14.38      41.44      55.82        0.06     0.01   0.971
  4429                      57.50       0.00       0.00       1.76      14.38      41.44      55.82        0.06     0.01   0.971
  4430                      57.50       0.00       0.00       1.76      14.38      41.44      55.82        0.06     0.01   0.971
  4431                      57.50       0.00       0.00       1.76      14.38      41.44      55.82        0.06     0.01   0.971
  4432                      57.50       0.00       0.00       1.76      14.38      41.44      55.82        0.06     0.01   0.971
  4433                      57.50       0.00       0.00       1.76      14.38      41.44      55.82        0.06     0.01   0.971
  4434                      57.50       0.00       0.00       1.76      14.38      41.44      55.82        0.06     0.01   0.971
  4435                      57.50       0.00       0.00       1.76      14.38      41.44      55.82        0.06     0.01   0.971
  4436                      57.50       0.00       0.00       1.76      14.38      41.44      55.82        0.06     0.01   0.971
  4437                      57.50       0.00       0.00       1.76      14.38      41.44      55.82        0.06     0.01   0.971
  4438                      57.50       0.00       0.00       1.76      14.38      41.44      55.82        0.06     0.01   0.971
  4439                      57.50       0.00       0.00       1.76      14.38      41.44      55.82        0.06     0.01   0.971
  4440                      57.50       0.00       0.00       1.76      14.38      41.44      55.82        0.06     0.01   0.971
  4441                      57.50       0.00       0.00       1.76      14.38      41.44      55.82        0.06     0.01   0.971
  4442                      57.50       0.00       0.00       1.76      14.38      41.44      55.82        0.06     0.01   0.971
  4443                      57.50       0.00       0.00       1.76      14.38      41.44      55.82        0.06     0.01   0.971
  4444                      57.50       0.00       0.00       1.76      14.38      41.44      55.82        0.06     0.01   0.971
  4445                      57.50       0.00       0.00       1.76      14.38      41.44      55.82        0.06     0.01   0.971
  4446                      57.50       0.00       0.00       1.76      14.38      41.44      55.82        0.06     0.01   0.971
  4447                      57.50       0.00       0.00       1.76      14.38      41.44      55.82        0.06     0.01   0.971
  4448                      57.50       0.00       0.00       1.76      14.38      41.44      55.82        0.06     0.01   0.971
  4449                      57.50       0.00       0.00       1.76      14.38      41.44      55.82        0.06     0.01   0.971
  4450                      57.50       0.00       0.00       1.76      14.38      41.44      55.82        0.06     0.01   0.971
  4451                      57.50       0.00       0.00       1.76      14.38      41.44      55.82        0.06     0.01   0.971
  4452                      57.50       0.00       0.00       1.76      14.38      41.44      55.82        0.06     0.01   0.971
  4453                      57.50       0.00       0.00       1.76      14.38      41.44      55.82        0.06     0.01   0.971
  4454                      57.50       0.00       0.00       1.76      14.38      41.44      55.82        0.06     0.01   0.971
  4462                      57.50       0.00       0.00       1.76      14.38      41.44      55.82        0.06     0.01   0.971
  4463                      57.50       0.00       0.00       1.76      14.38      41.44      55.82        0.06     0.01   0.971
  4563                      57.50       0.00       0.00       1.76      14.38      41.44      55.82        0.06     0.01   0.971
  4564                      57.50       0.00       0.00       1.76      14.38      41.44      55.82        0.06     0.01   0.971
  4565                      57.50       0.00       0.00       1.76      14.38      41.44      55.82        0.06     0.01   0.971
  4566                      57.50       0.00       0.00       1.76      14.38      41.44      55.82        0.06     0.01   0.971
  4567                      57.50       0.00       0.00       1.76      14.38      41.44      55.82        0.06     0.01   0.971
  4568                      57.50       0.00       0.00       1.76      14.38      41.44      55.82        0.06     0.01   0.971
  4569                      57.50       0.00       0.00       1.76      14.38      41.44      55.82        0.06     0.01   0.971
  4570                      57.50       0.00       0.00       1.76      14.38      41.44      55.82        0.06     0.01   0.971
  4571                      57.50       0.00       0.00       1.76      14.38      41.44      55.82        0.06     0.01   0.971
  4572                      57.50       0.00       0.00       1.76      14.38      41.44      55.82        0.06     0.01   0.971
  4573                      57.50       0.00       0.00       1.76      14.38      41.44      55.82        0.06     0.01   0.971
  4574                      57.50       0.00       0.00       1.76      14.38      41.44      55.82        0.06     0.01   0.971
  4575                      57.50       0.00       0.00       1.76      14.38      41.44      55.82        0.06     0.01   0.971
  4576                      57.50       0.00       0.00       1.76      14.38      41.44      55.82        0.06     0.01   0.971
  4577                      57.50       0.00       0.00       1.76      14.38      41.44      55.82        0.06     0.01   0.971
  4578                      57.50       0.00       0.00       1.76      14.38      41.44      55.82        0.06     0.01   0.971
  4579                      57.50       0.00       0.00       1.76      14.38      41.44      55.82        0.06     0.01   0.971
  4580                      57.50       0.00       0.00       1.76      14.38      41.44      55.82        0.06     0.01   0.971
  4581                      57.50       0.00       0.00       1.76      14.38      41.44      55.82        0.06     0.01   0.971
  4624                      57.50       0.00       0.00       1.76      14.38      41.44      55.82        0.06     0.01   0.971
  4625                      57.50       0.00       0.00       1.76      14.38      41.44      55.82        0.06     0.01   0.971
  4644                      57.50       0.00       0.00       1.76      14.38      41.44      55.82        0.06     0.01   0.971
  4645                      57.50       0.00       0.00       1.76      14.38      41.44      55.82        0.06     0.01   0.971
  4646                      57.50       0.00       0.00       1.76      14.38      41.44      55.82        0.06     0.01   0.971
  4679                      57.50       0.00       0.00       1.76      14.38      41.44      55.82        0.06     0.01   0.971
  4680                      57.50       0.00       0.00       1.76      14.38      41.44      55.82        0.06     0.01   0.971
  4681                      57.50       0.00       0.00       1.76      14.38      41.44      55.82        0.06     0.01   0.971
  4682                      57.50       0.00       0.00       1.76      14.38      41.44      55.82        0.06     0.01   0.971
  4683                      57.50       0.00       0.00       1.76      14.38      41.44      55.82        0.06     0.01   0.971
  4711                      57.50       0.00       0.00       1.76      14.38      41.44      55.82        0.06     0.01   0.971
  4712                      57.50       0.00       0.00       1.76      14.38      41.44      55.82        0.06     0.01   0.971
  4713                      57.50       0.00       0.00       1.76      14.38      41.44      55.82        0.06     0.01   0.971
  4714                      57.50       0.00       0.00       1.76      14.38      41.44      55.82        0.06     0.01   0.971
  4715                      57.50       0.00       0.00       1.76      14.38      41.44      55.82        0.06     0.01   0.971
  4716                      57.50       0.00       0.00       1.76      14.38      41.44      55.82        0.06     0.01   0.971
  4717                      57.50       0.00       0.00       1.76      14.38      41.44      55.82        0.06     0.01   0.971
  4718                      57.50       0.00       0.00       1.76      14.38      41.44      55.82        0.06     0.01   0.971
  4722                      57.50       0.00       0.00       1.76      14.38      41.44      55.82        0.06     0.01   0.971
  4760                      57.50       0.00       0.00       1.76      14.38      41.44      55.82        0.06     0.01   0.971
  4761                      57.50       0.00       0.00       1.76      14.38      41.44      55.82        0.06     0.01   0.971
  4765                      57.50       0.00       0.00       1.76      14.38      41.44      55.82        0.06     0.01   0.971
  4766                      57.50       0.00       0.00       1.76      14.38      41.44      55.82        0.06     0.01   0.971
  4767                      57.50       0.00       0.00       1.76      14.38      41.44      55.82        0.06     0.01   0.971
  4768                      57.50       0.00       0.00       1.76      14.38      41.44      55.82        0.06     0.01   0.971
  4769                      57.50       0.00       0.00       1.76      14.38      41.44      55.82        0.06     0.01   0.971
  4855                      57.50       0.00       0.00       1.76      14.38      41.44      55.82        0.06     0.01   0.971
  4856                      57.50       0.00       0.00       1.76      14.38      41.44      55.82        0.06     0.01   0.971
  5284                      57.50       0.00       0.00       1.76      14.38      41.44      55.82        0.06     0.01   0.971
  5285                      57.50       0.00       0.00       1.76      14.38      41.44      55.82        0.06     0.01   0.971
  5286                      57.50       0.00       0.00       1.76      14.38      41.44      55.82        0.06     0.01   0.971
  5287                      57.50       0.00       0.00       1.76      14.38      41.44      55.82        0.06     0.01   0.971
  5288                      57.50       0.00       0.00       1.76      14.38      41.44      55.82        0.06     0.01   0.971
  5289                      57.50       0.00       0.00       1.76      14.38      41.44      55.82        0.06     0.01   0.971
  5290                      57.50       0.00       0.00       1.76      14.38      41.44      55.82        0.06     0.01   0.971
  5291                      57.50       0.00       0.00       1.76      14.38      41.44      55.82        0.06     0.01   0.971
  5292                      57.50       0.00       0.00       1.76      14.38      41.44      55.82        0.06     0.01   0.971
  5293                      57.50       0.00       0.00       1.76      14.38      41.44      55.82        0.06     0.01   0.971
  5294                      57.50       0.00       0.00       1.76      14.38      41.44      55.82        0.06     0.01   0.971
  5295                      57.50       0.00       0.00       1.76      14.38      41.44      55.82        0.06     0.01   0.971
  5296                      57.50       0.00       0.00       1.76      14.38      41.44      55.82        0.06     0.01   0.971
  5297                      57.50       0.00       0.00       1.76      14.38      41.44      55.82        0.06     0.01   0.971
  5298                      57.50       0.00       0.00       1.76      14.38      41.44      55.82        0.06     0.01   0.971
  5299                      57.50       0.00       0.00       1.76      14.38      41.44      55.82        0.06     0.01   0.971
  5300                      57.50       0.00       0.00       1.76      14.38      41.44      55.82        0.06     0.01   0.971
  5301                      57.50       0.00       0.00       1.76      14.38      41.44      55.82        0.06     0.01   0.971
  5302                      57.50       0.00       0.00       1.76      14.38      41.44      55.82        0.06     0.01   0.971
  5303                      57.50       0.00       0.00       1.76      14.38      41.44      55.82        0.06     0.01   0.971
  5304                      57.50       0.00       0.00       1.76      14.38      41.44      55.82        0.06     0.01   0.971
  5305                      57.50       0.00       0.00       1.76      14.38      41.44      55.82        0.06     0.01   0.971
  5306                      57.50       0.00       0.00       1.76      14.38      41.44      55.82        0.06     0.01   0.971
  5307                      57.50       0.00       0.00       1.76      14.38      41.44      55.82        0.06     0.01   0.971
  5308                      57.50       0.00       0.00       1.76      14.38      41.44      55.82        0.06     0.01   0.971
  5309                      57.50       0.00       0.00       1.76      14.38      41.44      55.82        0.06     0.01   0.971
  5310                      57.50       0.00       0.00       1.76      14.38      41.44      55.82        0.06     0.01   0.971
  5311                      57.50       0.00       0.00       1.76      14.38      41.44      55.82        0.06     0.01   0.971
  5312                      57.50       0.00       0.00       1.76      14.38      41.44      55.82        0.06     0.01   0.971
  5313                      57.50       0.00       0.00       1.76      14.38      41.44      55.82        0.06     0.01   0.971
  5314                      57.50       0.00       0.00       1.76      14.38      41.44      55.82        0.06     0.01   0.971
  5315                      57.50       0.00       0.00       1.76      14.38      41.44      55.82        0.06     0.01   0.971
  5316                      57.50       0.00       0.00       1.76      14.38      41.44      55.82        0.06     0.01   0.971
  5317                      57.50       0.00       0.00       1.76      14.38      41.44      55.82        0.06     0.01   0.971
  5318                      57.50       0.00       0.00       1.76      14.38      41.44      55.82        0.06     0.01   0.971
  5319                      57.50       0.00       0.00       1.76      14.38      41.44      55.82        0.06     0.01   0.971
  5320                      57.50       0.00       0.00       1.76      14.38      41.44      55.82        0.06     0.01   0.971
  5321                      57.50       0.00       0.00       1.76      14.38      41.44      55.82        0.06     0.01   0.971
  5322                      57.50       0.00       0.00       1.76      14.38      41.44      55.82        0.06     0.01   0.971
  5323                      57.50       0.00       0.00       1.76      14.38      41.44      55.82        0.06     0.01   0.971
  5324                      57.50       0.00       0.00       1.76      14.38      41.44      55.82        0.06     0.01   0.971
  5325                      57.50       0.00       0.00       1.76      14.38      41.44      55.82        0.06     0.01   0.971
  5326                      57.50       0.00       0.00       1.76      14.38      41.44      55.82        0.06     0.01   0.971
  5327                      57.50       0.00       0.00       1.76      14.38      41.44      55.82        0.06     0.01   0.971
  5328                      57.50       0.00       0.00       1.76      14.38      41.44      55.82        0.06     0.01   0.971
  5329                      57.50       0.00       0.00       1.76      14.38      41.44      55.82        0.06     0.01   0.971
  5330                      57.50       0.00       0.00       1.76      14.38      41.44      55.82        0.06     0.01   0.971
  5333                      57.50       0.00       0.00       1.76      14.38      41.44      55.82        0.06     0.01   0.971
  5334                      57.50       0.00       0.00       1.76      14.38      41.44      55.82        0.06     0.01   0.971
  6040                      57.50       0.00       0.00       1.76      14.38      41.44      55.82        0.06     0.01   0.971
  6041                      57.50       0.00       0.00       1.76      14.38      41.44      55.82        0.06     0.01   0.971
  6162                      57.50       0.00       0.00       1.76      14.38      41.44      55.82        0.06     0.01   0.971
  7207                      57.50       0.00       0.00       1.76      14.38      41.44      55.82        0.06     0.01   0.971
  7208                      57.50       0.00       0.00       1.76      14.38      41.44      55.82        0.06     0.01   0.971
  7213                      57.50       0.00       0.00       1.76      14.38      41.44      55.82        0.06     0.01   0.971
  7214                      57.50       0.00       0.00       1.76      14.38      41.44      55.82        0.06     0.01   0.971
  7219                      57.50       0.00       0.00       1.76      14.38      41.44      55.82        0.06     0.01   0.971
  7220                      57.50       0.00       0.00       1.76      14.38      41.44      55.82        0.06     0.01   0.971
  7221                      57.50       0.00       0.00       1.76      14.38      41.44      55.82        0.06     0.01   0.971
  7225                      57.50       0.00       0.00       1.76      14.38      41.44      55.82        0.06     0.01   0.971
  7229                      57.50       0.00       0.00       1.76      14.38      41.44      55.82        0.06     0.01   0.971
  7231                      57.50       0.00       0.00       1.76      14.38      41.44      55.82        0.06     0.01   0.971
  7268                      57.50       0.00       0.00       1.76      14.38      41.44      55.82        0.06     0.01   0.971
  7269                      57.50       0.00       0.00       1.76      14.38      41.44      55.82        0.06     0.01   0.971
  7271                      57.50       0.00       0.00       1.76      14.38      41.44      55.82        0.06     0.01   0.971
  7272                      57.50       0.00       0.00       1.76      14.38      41.44      55.82        0.06     0.01   0.971
  7273                      57.50       0.00       0.00       1.76      14.38      41.44      55.82        0.06     0.01   0.971
  7433                      57.50       0.00       0.00       1.76      14.38      41.44      55.82        0.06     0.01   0.971
  7434                      57.50       0.00       0.00       1.76      14.38      41.44      55.82        0.06     0.01   0.971
  7544                      57.50       0.00       0.00       1.76      14.38      41.44      55.82        0.06     0.01   0.971
  7545                      57.50       0.00       0.00       1.76      14.38      41.44      55.82        0.06     0.01   0.971
  8737                      57.50       0.00       0.00       1.76      14.38      41.44      55.82        0.06     0.01   0.971
  8818                      57.50       0.00       0.00       1.76      14.38      41.44      55.82        0.06     0.01   0.971
  9942                      57.50       0.00       0.00       1.76      14.38      41.44      55.82        0.06     0.01   0.971
  9957                      57.50       0.00       0.00       1.76      14.38      41.44      55.82        0.06     0.01   0.971
  4399                      57.50       0.00       0.00       1.69      14.37      41.49      55.86        0.02     0.00   0.972
  4400                      57.50       0.00       0.00       1.69      14.37      41.49      55.86        0.02     0.00   0.972
  4401                      57.50       0.00       0.00       1.69      14.37      41.49      55.86        0.02     0.00   0.972
  4402                      57.50       0.00       0.00       1.69      14.37      41.49      55.86        0.02     0.00   0.972
  4403                      57.50       0.00       0.00       1.69      14.37      41.49      55.86        0.02     0.00   0.972
  4404                      57.50       0.00       0.00       1.69      14.37      41.49      55.86        0.02     0.00   0.972
  4405                      57.50       0.00       0.00       1.69      14.37      41.49      55.86        0.02     0.00   0.972
  4406                      57.50       0.00       0.00       1.69      14.37      41.49      55.86        0.02     0.00   0.972
  4407                      57.50       0.00       0.00       1.69      14.37      41.49      55.86        0.02     0.00   0.972
  4408                      57.50       0.00       0.00       1.69      14.37      41.49      55.86        0.02     0.00   0.972
  4409                      57.50       0.00       0.00       1.69      14.37      41.49      55.86        0.02     0.00   0.972
  4410                      57.50       0.00       0.00       1.69      14.37      41.49      55.86        0.02     0.00   0.972
  4411                      57.50       0.00       0.00       1.69      14.37      41.49      55.86        0.02     0.00   0.972
  4412                      57.50       0.00       0.00       1.69      14.37      41.49      55.86        0.02     0.00   0.972
  4423                      57.50       0.00       0.00       1.69      14.37      41.49      55.86        0.02     0.00   0.972
  4424                      57.50       0.00       0.00       1.69      14.37      41.49      55.86        0.02     0.00   0.972
  4425                      57.50       0.00       0.00       1.69      14.37      41.49      55.86        0.02     0.00   0.972
  4426                      57.50       0.00       0.00       1.69      14.37      41.49      55.86        0.02     0.00   0.972
  4427                      57.50       0.00       0.00       1.69      14.37      41.49      55.86        0.02     0.00   0.972
  4428                      57.50       0.00       0.00       1.69      14.37      41.49      55.86        0.02     0.00   0.972
  4455                      57.50       0.00       0.00       1.69      14.37      41.49      55.86        0.02     0.00   0.972
  4456                      57.50       0.00       0.00       1.69      14.37      41.49      55.86        0.02     0.00   0.972
  4457                      57.50       0.00       0.00       1.69      14.37      41.49      55.86        0.02     0.00   0.972
  4458                      57.50       0.00       0.00       1.69      14.37      41.49      55.86        0.02     0.00   0.972
  4459                      57.50       0.00       0.00       1.69      14.37      41.49      55.86        0.02     0.00   0.972
  4460                      57.50       0.00       0.00       1.69      14.37      41.49      55.86        0.02     0.00   0.972
  4461                      57.50       0.00       0.00       1.69      14.37      41.49      55.86        0.02     0.00   0.972
  4464                      57.50       0.00       0.00       1.69      14.37      41.49      55.86        0.02     0.00   0.972
  4465                      57.50       0.00       0.00       1.69      14.37      41.49      55.86        0.02     0.00   0.972
  4466                      57.50       0.00       0.00       1.69      14.37      41.49      55.86        0.02     0.00   0.972
  4467                      57.50       0.00       0.00       1.69      14.37      41.49      55.86        0.02     0.00   0.972
  4468                      57.50       0.00       0.00       1.69      14.37      41.49      55.86        0.02     0.00   0.972
  4469                      57.50       0.00       0.00       1.69      14.37      41.49      55.86        0.02     0.00   0.972
  4470                      57.50       0.00       0.00       1.69      14.37      41.49      55.86        0.02     0.00   0.972
  4471                      57.50       0.00       0.00       1.69      14.37      41.49      55.86        0.02     0.00   0.972
  4472                      57.50       0.00       0.00       1.69      14.37      41.49      55.86        0.02     0.00   0.972
  4473                      57.50       0.00       0.00       1.69      14.37      41.49      55.86        0.02     0.00   0.972
  4474                      57.50       0.00       0.00       1.69      14.37      41.49      55.86        0.02     0.00   0.972
  4628                      57.50       0.00       0.00       1.69      14.37      41.49      55.86        0.02     0.00   0.972
  4631                      57.50       0.00       0.00       1.69      14.37      41.49      55.86        0.02     0.00   0.972
  4632                      57.50       0.00       0.00       1.69      14.37      41.49      55.86        0.02     0.00   0.972
  4633                      57.50       0.00       0.00       1.69      14.37      41.49      55.86        0.02     0.00   0.972
  4634                      57.50       0.00       0.00       1.69      14.37      41.49      55.86        0.02     0.00   0.972
  4637                      57.50       0.00       0.00       1.69      14.37      41.49      55.86        0.02     0.00   0.972
  4686                      57.50       0.00       0.00       1.69      14.37      41.49      55.86        0.02     0.00   0.972
  4687                      57.50       0.00       0.00       1.69      14.37      41.49      55.86        0.02     0.00   0.972
  4688                      57.50       0.00       0.00       1.69      14.37      41.49      55.86        0.02     0.00   0.972
  5032                      57.50       0.00       0.00       1.69      14.37      41.49      55.86        0.02     0.00   0.972
  5331                      57.50       0.00       0.00       1.69      14.37      41.49      55.86        0.02     0.00   0.972
  5332                      57.50       0.00       0.00       1.69      14.37      41.49      55.86        0.02     0.00   0.972
  5335                      57.50       0.00       0.00       1.69      14.37      41.49      55.86        0.02     0.00   0.972
  5336                      57.50       0.00       0.00       1.69      14.37      41.49      55.86        0.02     0.00   0.972
  5337                      57.50       0.00       0.00       1.69      14.37      41.49      55.86        0.02     0.00   0.972
  5338                      57.50       0.00       0.00       1.69      14.37      41.49      55.86        0.02     0.00   0.972
  5339                      57.50       0.00       0.00       1.69      14.37      41.49      55.86        0.02     0.00   0.972
  5340                      57.50       0.00       0.00       1.69      14.37      41.49      55.86        0.02     0.00   0.972
  5341                      57.50       0.00       0.00       1.69      14.37      41.49      55.86        0.02     0.00   0.972
  5342                      57.50       0.00       0.00       1.69      14.37      41.49      55.86        0.02     0.00   0.972
  5343                      57.50       0.00       0.00       1.69      14.37      41.49      55.86        0.02     0.00   0.972
  5344                      57.50       0.00       0.00       1.69      14.37      41.49      55.86        0.02     0.00   0.972
  5345                      57.50       0.00       0.00       1.69      14.37      41.49      55.86        0.02     0.00   0.972
  5346                      57.50       0.00       0.00       1.69      14.37      41.49      55.86        0.02     0.00   0.972
  5347                      57.50       0.00       0.00       1.69      14.37      41.49      55.86        0.02     0.00   0.972
  5348                      57.50       0.00       0.00       1.69      14.37      41.49      55.86        0.02     0.00   0.972
  5349                      57.50       0.00       0.00       1.69      14.37      41.49      55.86        0.02     0.00   0.972
  5350                      57.50       0.00       0.00       1.69      14.37      41.49      55.86        0.02     0.00   0.972
  6088                      57.50       0.00       0.00       1.69      14.37      41.49      55.86        0.02     0.00   0.972
  7275                      57.50       0.00       0.00       1.69      14.37      41.49      55.86        0.02     0.00   0.972
  9955                      57.50       0.00       0.00       1.69      14.37      41.49      55.86        0.02     0.00   0.972
  9956                      57.50       0.00       0.00       1.69      14.37      41.49      55.86        0.02     0.00   0.972
  
  
  ****************************
  Subcatchment Washoff Summary
  ****************************
  
  ----------------------------------
                                 COD
  Subcatchment                    kg
  ----------------------------------
  2707                        14.680
  2708                        14.680
  2709                        14.680
  2710                        14.680
  2712                        14.680
  2713                        14.680
  2714                        14.680
  2715                        14.680
  2716                        14.680
  2717                        14.680
  2718                        14.680
  2719                        14.680
  2721                        14.680
  2722                        14.680
  2723                        14.680
  2724                        14.680
  2725                        14.680
  2726                        14.680
  2727                        14.680
  2728                        14.680
  2729                        14.680
  2730                        14.680
  2731                        14.680
  2732                        14.680
  2733                        14.680
  2734                        14.680
  2735                        14.680
  2736                        14.680
  2737                        14.680
  2738                        14.680
  2739                        14.680
  2740                        14.680
  2741                        14.680
  2742                        14.680
  2743                        14.680
  2744                        14.680
  2745                        14.680
  2746                        14.680
  2747                        14.680
  2748                        14.680
  2749                        14.680
  2750                        14.680
  2751                        14.680
  2752                        14.680
  2753                        14.680
  2754                        14.680
  2755                        14.680
  2756                        14.680
  2964                        14.680
  2969                        14.680
  2970                        14.680
  2974                        14.680
  2975                        14.680
  2976                        14.680
  2977                        14.680
  2978                        14.680
  2979                        14.680
  2980                        14.680
  2981                        14.680
  2982                        14.680
  2984                        14.680
  2985                        14.680
  3925                        14.680
  3926                        14.680
  3927                        14.680
  3928                        14.680
  3929                        14.680
  3930                        14.680
  3931                        14.680
  3932                        14.680
  3933                        14.680
  3934                        14.680
  3935                        14.680
  3936                        14.680
  3937                        14.680
  3938                        14.680
  3939                        14.680
  3940                        14.680
  3941                        14.680
  3942                        14.680
  3943                        14.680
  3944                        14.680
  3945                        14.680
  3946                        14.680
  3947                        14.680
  3948                        14.680
  3949                        14.680
  3950                        14.680
  3951                        14.680
  3952                        14.680
  3953                        14.680
  3954                        14.680
  3955                        14.680
  3956                        14.680
  4032                        14.680
  4033                        14.680
  4041                        14.680
  4051                        14.680
  4055                        14.680
  4056                        14.680
  4058                        14.680
  4385                        14.680
  4386                        14.680
  4387                        14.680
  4388                        14.680
  4389                        14.680
  4390                        14.680
  4391                        14.680
  4392                        14.680
  4393                        14.680
  4394                        14.680
  4395                        14.680
  4396                        14.680
  4397                        14.680
  4398                        14.680
  4429                        14.680
  4430                        14.680
  4431                        14.680
  4432                        14.680
  4433                        14.680
  4434                        14.680
  4435                        14.680
  4436                        14.680
  4437                        14.680
  4438                        14.680
  4439                        14.680
  4440                        14.680
  4441                        14.680
  4442                        14.680
  4443                        14.680
  4444                        14.680
  4445                        14.680
  4446                        14.680
  4447                        14.680
  4448                        14.680
  4449                        14.680
  4450                        14.680
  4451                        14.680
  4452                        14.680
  4453                        14.680
  4454                        14.680
  4462                        14.680
  4463                        14.680
  4563                        14.680
  4564                        14.680
  4565                        14.680
  4566                        14.680
  4567                        14.680
  4568                        14.680
  4569                        14.680
  4570                        14.680
  4571                        14.680
  4572                        14.680
  4573                        14.680
  4574                        14.680
  4575                        14.680
  4576                        14.680
  4577                        14.680
  4578                        14.680
  4579                        14.680
  4580                        14.680
  4581                        14.680
  4624                        14.680
  4625                        14.680
  4644                        14.680
  4645                        14.680
  4646                        14.680
  4679                        14.680
  4680                        14.680
  4681                        14.680
  4682                        14.680
  4683                        14.680
  4711                        14.680
  4712                        14.680
  4713                        14.680
  4714                        14.680
  4715                        14.680
  4716                        14.680
  4717                        14.680
  4718                        14.680
  4722                        14.680
  4760                        14.680
  4761                        14.680
  4765                        14.680
  4766                        14.680
  4767                        14.680
  4768                        14.680
  4769                        14.680
  4855                        14.680
  4856                        14.680
  5284                        14.680
  5285                        14.680
  5286                        14.680
  5287                        14.680
  5288                        14.680
  5289                        14.680
  5290                        14.680
  5291                        14.680
  5292                        14.680
  5293                        14.680
  5294                        14.680
  5295                        14.680
  5296                        14.680
  5297                        14.680
  5298                        14.680
  5299                        14.680
  5300                        14.680
  5301                        14.680
  5302                        14.680
  5303                        14.680
  5304                        14.680
  5305                        14.680
  5306                        14.680
  5307                        14.680
  5308                        14.680
  5309                        14.680
  5310                        14.680
  5311                        14.680
  5312                        14.680
  5313                        14.680
  5314                        14.680
  5315                        14.680
  5316                        14.680
  5317                        14.680
  5318                        14.680
  5319                        14.680
  5320                        14.680
  5321                        14.680
  5322                        14.680
  5323                        14.680
  5324                        14.680
  5325                        14.680
  5326                        14.680
  5327                        14.680
  5328                        14.680
  5329                        14.680
  5330                        14.680
  5333                        14.680
  5334                        14.680
  6040                        14.680
  6041                        14.680
  6162                        14.680
  7207                        14.680
  7208                        14.680
  7213                        14.680
  7214                        14.680
  7219                        14.680
  7220                        14.680
  7221                        14.680
  7225                        14.680
  7229                        14.680
  7231                        14.680
  7268                        14.680
  7269                        14.680
  7271                        14.680
  7272                        14.680
  7273                        14.680
  7433                        14.680
  7434                        14.680
  7544                        14.680
  7545                        14.680
  8737                        14.680
  8818                        14.680
  9942                        14.680
  9957                        14.680
  4399                         4.408
  4400                         4.408
  4401                         4.408
  4402                         4.408
  4403                         4.408
  4404                         4.408
  4405                         4.408
  4406                         4.408
  4407                         4.408
  4408                         4.408
  4409                         4.408
  4410                         4.408
  4411                         4.408
  4412                         4.408
  4423                         4.408
  4424                         4.408
  4425                         4.408
  4426                         4.408
  4427                         4.408
  4428                         4.408
  4455                         4.408
  4456                         4.408
  4457                         4.408
  4458                         4.408
  4459                         4.408
  4460                         4.408
  4461                         4.408
  4464                         4.408
  4465                         4.408
  4466                         4.408
  4467                         4.408
  4468                         4.408
  4469                         4.408
  4470                         4.408
  4471                         4.408
  4472                         4.408
  4473                         4.408
  4474                         4.408
  4628                         4.408
  4631                         4.408
  4632                         4.408
  4633                         4.408
  4634                         4.408
  4637                         4.408
  4686                         4.408
  4687                         4.408
  4688                         4.408
  5032                         4.408
  5331                         4.408
  5332                         4.408
  5335                         4.408
  5336                         4.408
  5337                         4.408
  5338                         4.408
  5339                         4.408
  5340                         4.408
  5341                         4.408
  5342                         4.408
  5343                         4.408
  5344                         4.408
  5345                         4.408
  5346                         4.408
  5347                         4.408
  5348                         4.408
  5349                         4.408
  5350                         4.408
  6088                         4.408
  7275                         4.408
  9955                         4.408
  9956                         4.408
  ----------------------------------
  System                    4198.608
  
  
  ******************
  Node Depth Summary
  ******************
  
  ---------------------------------------------------------------------------------
                                 Average  Maximum  Maximum  Time of Max    Reported
                                   Depth    Depth      HGL   Occurrence   Max Depth
  Node                 Type       Meters   Meters   Meters  days hr:min      Meters
  ---------------------------------------------------------------------------------
  Node_02706           JUNCTION     3.03     4.77   101.61     0  03:08        0.00
  Node_02707           JUNCTION     1.06     2.81   102.24     0  02:30        0.00
  Node_02708           JUNCTION     0.94     2.81   102.56     0  02:30        0.00
  Node_02709           JUNCTION     1.03     3.01   102.64     0  02:29        0.00
  Node_02711           JUNCTION     0.72     2.72   102.63     0  02:29        0.00
  Node_02712           JUNCTION     0.73     2.70   102.60     0  02:30        0.00
  Node_02713           JUNCTION     0.78     2.70   102.55     0  02:30        0.00
  Node_02714           JUNCTION     0.42     2.16   102.56     0  02:30        0.00
  Node_02715           JUNCTION     0.79     2.58   102.39     0  02:30        0.00
  Node_02716           JUNCTION     0.84     2.55   102.27     0  02:30        0.00
  Node_02717           JUNCTION     0.90     2.62   102.26     0  02:30        0.00
  Node_02718           JUNCTION     0.91     2.67   102.27     0  02:30        0.00
  Node_02720           JUNCTION     0.93     2.71   102.27     0  02:30        0.00
  Node_02721           JUNCTION     1.23     3.04   102.29     0  02:30        0.00
  Node_02722           JUNCTION     0.14     0.74   102.54     0  02:30        0.00
  Node_02723           JUNCTION     1.16     2.91   102.20     0  02:30        0.00
  Node_02724           JUNCTION     1.02     2.69   102.11     0  02:30        0.00
  Node_02725           JUNCTION     1.04     2.62   101.99     0  02:30        0.00
  Node_02726           JUNCTION     1.12     2.61   101.87     0  02:30        0.00
  Node_02727           JUNCTION     1.22     2.63   101.76     0  02:30        0.00
  Node_02728           JUNCTION     0.58     1.69   101.77     0  02:30        0.00
  Node_02729           JUNCTION     1.26     2.57   101.63     0  02:30        0.00
  Node_02730           JUNCTION     1.27     2.47   101.49     0  02:30        0.00
  Node_02731           JUNCTION     1.69     2.73   101.32     0  02:30        0.00
  Node_02732           JUNCTION     1.25     2.19   101.21     0  02:28        0.00
  Node_02733           JUNCTION     1.25     2.28   101.28     0  03:13        0.00
  Node_02734           JUNCTION     1.54     2.61   101.32     0  03:12        0.00
  Node_02735           JUNCTION     1.44     2.52   101.33     0  03:13        0.00
  Node_02736           JUNCTION     1.63     2.76   101.37     0  03:13        0.00
  Node_02737           JUNCTION     1.62     2.79   101.41     0  03:07        0.00
  Node_02738           JUNCTION     1.46     2.68   101.45     0  03:13        0.00
  Node_02739           JUNCTION     1.34     2.63   101.50     0  03:13        0.00
  Node_02740           JUNCTION     1.35     2.69   101.53     0  03:12        0.00
  Node_02741           JUNCTION     1.02     2.23   101.52     0  03:11        0.00
  Node_02742           JUNCTION     1.37     2.74   101.55     0  03:15        0.00
  Node_02743           JUNCTION     1.79     3.20   101.57     0  03:09        0.00
  Node_02744           JUNCTION     0.98     2.23   101.57     0  03:15        0.00
  Node_02745           JUNCTION     1.53     2.96   101.58     0  03:13        0.00
  Node_02746           JUNCTION     1.43     2.91   101.60     0  03:14        0.00
  Node_02747           JUNCTION     0.36     1.24   101.59     0  03:11        0.00
  Node_02748           JUNCTION     0.30     1.14   101.59     0  03:11        0.00
  Node_02749           JUNCTION     1.45     2.96   101.60     0  03:10        0.00
  Node_02750           JUNCTION     1.46     3.01   101.61     0  03:14        0.00
  Node_02751           JUNCTION     1.45     3.01   101.61     0  03:12        0.00
  Node_02752           JUNCTION     1.46     3.06   101.60     0  03:14        0.00
  Node_02753           JUNCTION     1.50     3.13   101.60     0  03:14        0.00
  Node_02754           JUNCTION     1.55     3.28   101.60     0  03:14        0.00
  Node_02755           JUNCTION     2.47     4.21   101.60     0  03:08        0.00
  Node_02963           JUNCTION     0.72     2.37   102.28     0  02:30        0.00
  Node_02968           JUNCTION     0.53     1.38   101.50     0  03:13        0.00
  Node_02969           JUNCTION     0.66     1.69   101.57     0  03:09        0.00
  Node_02973           JUNCTION     2.00     3.71   101.60     0  03:08        0.00
  Node_02974           JUNCTION     2.27     4.34   101.47     0  03:14        0.00
  Node_02975           JUNCTION     2.27     4.34   101.48     0  03:14        0.00
  Node_02976           JUNCTION     2.30     4.34   101.53     0  03:14        0.00
  Node_02977           JUNCTION     2.29     4.30   101.63     0  03:08        0.00
  Node_02978           JUNCTION     2.18     4.17   101.70     0  03:08        0.00
  Node_02979           JUNCTION     2.22     4.30   101.41     0  03:14        0.00
  Node_02980           JUNCTION     2.16     4.28   101.37     0  04:15        0.00
  Node_02981           JUNCTION     2.18     4.42   101.37     0  04:15        0.00
  Node_02983           JUNCTION     0.52     1.33   101.45     0  03:07        0.00
  Node_02984           JUNCTION     2.63     4.62   101.60     0  03:14        0.00
  Node_03924           JUNCTION     0.31     1.00   101.82     0  02:21        0.00
  Node_03925           JUNCTION     0.70     2.06   102.43     0  02:32        0.00
  Node_03926           JUNCTION     0.19     0.96   102.43     0  02:32        0.00
  Node_03927           JUNCTION     0.69     2.05   102.43     0  02:32        0.00
  Node_03928           JUNCTION     0.71     2.08   102.42     0  02:32        0.00
  Node_03929           JUNCTION     0.72     2.10   102.40     0  02:32        0.00
  Node_03930           JUNCTION     0.75     2.13   102.38     0  02:38        0.00
  Node_03931           JUNCTION     0.74     2.13   102.37     0  02:56        0.00
  Node_03932           JUNCTION     0.79     2.16   102.32     0  02:59        0.00
  Node_03933           JUNCTION     0.79     2.13   102.26     0  02:39        0.00
  Node_03934           JUNCTION     0.36     1.40   102.26     0  02:33        0.00
  Node_03935           JUNCTION     0.86     2.18   102.15     0  02:24        0.00
  Node_03936           JUNCTION     0.87     2.12   102.05     0  02:58        0.00
  Node_03937           JUNCTION     1.33     1.77   101.93     0  03:10        0.00
  Node_03938           JUNCTION     1.66     3.25   102.44     0  02:36        0.00
  Node_03939           JUNCTION     1.77     3.39   102.43     0  02:28        0.00
  Node_03940           JUNCTION     1.85     3.47   102.40     0  02:32        0.00
  Node_03941           JUNCTION     1.93     3.53   102.34     0  02:19        0.00
  Node_03942           JUNCTION     1.96     3.53   102.28     0  02:25        0.00
  Node_03943           JUNCTION     2.04     3.58   102.19     0  01:55        0.00
  Node_03944           JUNCTION     2.13     3.69   102.17     0  01:55        0.00
  Node_03945           JUNCTION     2.20     3.78   102.20     0  02:19        0.00
  Node_03946           JUNCTION     2.26     3.88   102.24     0  03:07        0.00
  Node_03947           JUNCTION     2.60     4.41   102.30     0  03:13        0.00
  Node_03948           JUNCTION     2.59     4.45   102.30     0  03:10        0.00
  Node_03949           JUNCTION     2.71     4.61   102.31     0  03:14        0.00
  Node_03950           JUNCTION     2.59     4.54   102.31     0  03:13        0.00
  Node_03951           JUNCTION     2.60     4.61   102.30     0  03:15        0.00
  Node_03952           JUNCTION     2.62     4.70   102.29     0  03:08        0.00
  Node_03953           JUNCTION     2.54     4.68   102.25     0  03:09        0.00
  Node_03954           JUNCTION     3.43     5.58   102.16     0  03:15        0.00
  Node_03955           JUNCTION     2.38     4.53   102.02     0  03:14        0.00
  Node_04031           JUNCTION     0.42     1.03   102.26     0  02:38        0.00
  Node_04032           JUNCTION     2.23     3.92   102.27     0  03:11        0.00
  Node_04040           JUNCTION     0.75     1.74   102.28     0  02:46        0.00
  Node_04050           JUNCTION     0.45     1.65   102.62     0  04:32        0.00
  Node_04054           JUNCTION     0.29     1.28   102.42     0  02:44        0.00
  Node_04055           JUNCTION     0.45     1.51   102.32     0  02:31        0.00
  Node_04057           JUNCTION     0.54     1.60   101.91     0  02:21        0.00
  Node_04384           JUNCTION     2.33     4.25   101.83     0  03:13        0.00
  Node_04385           JUNCTION     2.03     3.94   101.85     0  03:13        0.00
  Node_04386           JUNCTION     2.03     3.92   101.86     0  03:14        0.00
  Node_04387           JUNCTION     2.02     3.90   101.87     0  03:15        0.00
  Node_04388           JUNCTION     2.01     3.87   101.87     0  02:59        0.00
  Node_04389           JUNCTION     0.50     1.51   101.88     0  03:03        0.00
  Node_04390           JUNCTION     2.00     3.86   101.88     0  02:59        0.00
  Node_04391           JUNCTION     1.98     3.82   101.89     0  02:58        0.00
  Node_04392           JUNCTION     2.09     3.93   101.89     0  03:09        0.00
  Node_04393           JUNCTION     1.96     3.78   101.89     0  03:13        0.00
  Node_04394           JUNCTION     0.89     2.24   101.88     0  03:08        0.00
  Node_04395           JUNCTION     1.94     3.73   101.88     0  03:07        0.00
  Node_04396           JUNCTION     1.92     3.68   101.88     0  03:14        0.00
  Node_04397           JUNCTION     0.72     1.99   101.88     0  03:03        0.00
  Node_04428           JUNCTION     1.92     3.67   101.88     0  03:13        0.00
  Node_04429           JUNCTION     1.90     3.63   101.88     0  03:11        0.00
  Node_04430           JUNCTION     1.89     3.60   101.88     0  03:15        0.00
  Node_04431           JUNCTION     1.66     3.30   101.87     0  03:13        0.00
  Node_04432           JUNCTION     1.57     3.19   101.86     0  03:01        0.00
  Node_04433           JUNCTION     1.40     2.98   101.86     0  03:10        0.00
  Node_04434           JUNCTION     1.68     3.27   101.86     0  03:12        0.00
  Node_04435           JUNCTION     1.52     3.07   101.84     0  03:06        0.00
  Node_04436           JUNCTION     1.91     3.43   101.83     0  03:08        0.00
  Node_04437           JUNCTION     2.04     3.52   101.81     0  02:57        0.00
  Node_04438           JUNCTION     2.33     3.81   101.82     0  02:58        0.00
  Node_04439           JUNCTION     1.38     2.85   101.82     0  03:12        0.00
  Node_04440           JUNCTION     1.37     2.82   101.83     0  03:12        0.00
  Node_04441           JUNCTION     1.11     2.50   101.83     0  03:07        0.00
  Node_04442           JUNCTION     1.43     2.86   101.83     0  03:06        0.00
  Node_04443           JUNCTION     1.28     2.70   101.84     0  03:14        0.00
  Node_04444           JUNCTION     1.27     2.66   101.84     0  02:56        0.00
  Node_04445           JUNCTION     1.20     2.58   101.85     0  03:12        0.00
  Node_04446           JUNCTION     1.16     2.52   101.85     0  03:14        0.00
  Node_04447           JUNCTION     1.09     2.42   101.86     0  03:09        0.00
  Node_04448           JUNCTION     1.10     2.44   101.89     0  02:23        0.00
  Node_04449           JUNCTION     1.11     2.46   101.92     0  02:23        0.00
  Node_04450           JUNCTION     1.25     2.61   101.93     0  02:23        0.00
  Node_04451           JUNCTION     1.06     2.40   101.94     0  02:23        0.00
  Node_04452           JUNCTION     0.83     2.16   101.98     0  02:23        0.00
  Node_04453           JUNCTION     0.58     1.77   101.99     0  02:23        0.00
  Node_04461           JUNCTION     1.01     2.29   101.91     0  02:23        0.00
  Node_04462           JUNCTION     0.99     2.28   101.93     0  02:23        0.00
  Node_04562           JUNCTION     1.03     2.46   102.05     0  02:21        0.00
  Node_04563           JUNCTION     1.38     2.92   102.04     0  02:21        0.00
  Node_04564           JUNCTION     1.17     2.68   102.07     0  02:21        0.00
  Node_04565           JUNCTION     1.19     2.72   102.08     0  02:21        0.00
  Node_04566           JUNCTION     1.33     2.88   102.08     0  02:21        0.00
  Node_04567           JUNCTION     1.29     2.84   102.05     0  02:21        0.00
  Node_04568           JUNCTION     1.30     2.84   102.03     0  02:21        0.00
  Node_04569           JUNCTION     1.47     3.04   102.01     0  02:21        0.00
  Node_04570           JUNCTION     0.94     2.29   102.02     0  02:21        0.00
  Node_04571           JUNCTION     1.47     2.99   101.92     0  02:21        0.00
  Node_04572           JUNCTION     2.86     4.43   101.96     0  03:08        0.00
  Node_04573           JUNCTION     2.54     4.15   101.98     0  02:24        0.00
  Node_04574           JUNCTION     2.62     3.72   102.02     0  02:24        0.00
  Node_04575           JUNCTION     3.03     4.70   102.01     0  02:24        0.00
  Node_04576           JUNCTION     1.65     3.32   101.97     0  02:24        0.00
  Node_04577           JUNCTION     1.68     3.38   101.96     0  03:10        0.00
  Node_04578           JUNCTION     1.72     3.44   101.95     0  03:12        0.00
  Node_04579           JUNCTION     1.79     3.51   101.92     0  02:59        0.00
  Node_04580           JUNCTION     0.82     1.98   101.76     0  02:23        0.00
  Node_04623           JUNCTION     0.82     2.19   101.85     0  03:14        0.00
  Node_04624           JUNCTION     1.01     2.38   101.84     0  02:37        0.00
  Node_04643           JUNCTION     0.77     2.03   101.93     0  02:23        0.00
  Node_04644           JUNCTION     0.79     2.00   101.84     0  02:56        0.00
  Node_04645           JUNCTION     0.98     2.05   101.65     0  02:23        0.00
  Node_04678           JUNCTION     0.84     2.16   101.88     0  03:14        0.00
  Node_04679           JUNCTION     0.50     1.67   101.85     0  03:14        0.00
  Node_04680           JUNCTION     2.11     4.04   101.81     0  03:11        0.00
  Node_04681           JUNCTION     2.10     4.05   101.77     0  03:14        0.00
  Node_04682           JUNCTION     0.30     0.98   101.99     0  02:24        0.00
  Node_04710           JUNCTION     0.69     1.96   101.95     0  05:06        0.00
  Node_04711           JUNCTION     0.72     2.61   102.60     0  05:30        0.00
  Node_04712           JUNCTION     0.72     2.61   102.62     0  02:28        0.00
  Node_04713           JUNCTION     0.68     2.58   102.63     0  02:30        0.00
  Node_04714           JUNCTION     0.71     2.60   102.65     0  02:29        0.00
  Node_04715           JUNCTION     0.67     2.52   102.61     0  02:29        0.00
  Node_04716           JUNCTION     0.67     2.46   102.59     0  02:30        0.00
  Node_04717           JUNCTION     0.45     1.43   101.73     0  02:28        0.00
  Node_04721           JUNCTION     0.60     1.61   101.96     0  02:24        0.00
  Node_04759           JUNCTION     0.66     1.79   101.97     0  02:24        0.00
  Node_04760           JUNCTION     0.75     2.02   101.48     0  03:14        0.00
  Node_04764           JUNCTION     0.72     1.59   101.51     0  02:23        0.00
  Node_04765           JUNCTION     0.50     1.51   101.93     0  02:23        0.00
  Node_04766           JUNCTION     0.95     2.26   102.03     0  02:21        0.00
  Node_04767           JUNCTION     0.92     2.26   102.09     0  02:21        0.00
  Node_04768           JUNCTION     1.02     2.35   102.01     0  02:21        0.00
  Node_04854           JUNCTION     0.42     1.45   101.88     0  03:00        0.00
  Node_04855           JUNCTION     1.02     2.09   102.02     0  02:24        0.00
  Node_05283           JUNCTION     2.07     3.62   102.24     0  03:04        0.00
  Node_05284           JUNCTION     2.04     3.58   102.24     0  02:56        0.00
  Node_05285           JUNCTION     1.98     3.47   102.22     0  01:55        0.00
  Node_05286           JUNCTION     1.94     3.42   102.22     0  01:55        0.00
  Node_05287           JUNCTION     1.92     3.42   102.27     0  02:17        0.00
  Node_05288           JUNCTION     1.91     3.41   102.28     0  01:56        0.00
  Node_05289           JUNCTION     1.39     2.70   102.22     0  01:55        0.00
  Node_05290           JUNCTION     1.90     3.40   102.29     0  01:56        0.00
  Node_05291           JUNCTION     1.70     3.19   102.39     0  01:56        0.00
  Node_05292           JUNCTION     1.66     3.17   102.41     0  02:48        0.00
  Node_05293           JUNCTION     1.65     3.15   102.41     0  01:56        0.00
  Node_05294           JUNCTION     1.61     3.11   102.42     0  03:12        0.00
  Node_05295           JUNCTION     1.65     3.15   102.42     0  02:59        0.00
  Node_05296           JUNCTION     1.62     3.12   102.43     0  03:14        0.00
  Node_05297           JUNCTION     1.42     2.79   102.30     0  01:56        0.00
  Node_05298           JUNCTION     1.57     3.04   102.44     0  02:43        0.00
  Node_05299           JUNCTION     1.56     3.03   102.43     0  02:19        0.00
  Node_05300           JUNCTION     1.53     2.98   102.43     0  02:35        0.00
  Node_05301           JUNCTION     1.49     2.93   102.42     0  02:18        0.00
  Node_05302           JUNCTION     1.49     2.93   102.43     0  02:56        0.00
  Node_05303           JUNCTION     1.46     2.88   102.43     0  02:19        0.00
[...]
  Link_05461                  3.64      3.64      3.65      0.79         0.83
  Link_05462                  3.68      3.68      3.69      0.56         0.40
  Link_05463                  3.66      3.68      3.66      0.66         0.37
  Link_05464                  3.67      3.67      3.67      0.01         0.83
  Link_05496                  4.16      4.19      4.16      3.20         3.06
  Link_05662                  2.10      2.10      2.17      0.01         0.01
  Link_05663                  2.99      2.99      3.29      0.01         0.01
  Link_05664                  4.41      4.41      4.42      0.01         0.01
  Link_05665                  4.42      4.50      4.42      4.01         3.58
  Link_05677                  4.42      4.42      4.42      2.26         1.57
  Link_05678                  2.52      2.52      2.53      0.01         0.01
  Link_05720                  4.08      4.08      4.08      1.08         1.01
  Link_05721                  4.08      4.08      4.08      0.60         0.49
  Link_05722                  3.65      3.65      3.65      0.01         0.01
  Link_05723                  3.10      3.10      3.11      0.01         0.01
  Link_05725                  2.85      2.85      2.95      0.01         0.01
  Link_05726                  3.99      3.99      4.02      0.01         0.01
  Link_05727                  3.99      3.99      3.99      0.01         0.06
  Link_05728                  3.80      3.80      3.83      0.01         0.01
  Link_05729                  3.66      3.66      3.66      1.17         1.18
  Link_05730                  3.24      3.24      3.25      0.01         0.01
  Link_05731                  3.56      3.57      3.56      1.04         1.53
  Link_05732                  3.23      3.23      3.24      0.01         0.01
  Link_05742                  3.27      3.27      3.45      0.01         0.01
  Link_05743                  4.04      4.04      4.06      0.01         0.01
  Link_05744                  4.19      4.19      4.30      0.10         0.09
  Link_05752                  2.58      2.58      2.63      1.65         0.01
  Link_05753                  3.08      3.08      3.08      0.01         0.76
  Link_05754                  2.85      2.85      2.95      0.01         0.01
  Link_05791                  3.11      3.11      3.22      0.01         0.01
  Link_05812                  4.28      4.28      4.32      0.01         0.01
  Link_05813                  4.22      4.22      4.23      0.01         0.01
  Link_05814                  3.51      3.51      3.69      0.01         0.01
  Link_05815                  3.23      3.23      3.30      0.01         0.01
  Link_05816                  3.00      3.00      3.01      0.01         0.01
  Link_05817                  3.01      3.01      3.03      0.01         0.01
  Link_05818                  3.00      3.00      3.01      0.01         0.01
  Link_05983                  2.20      2.20      2.39      0.01         0.01
  Link_05984                  1.91      1.91      1.95      0.01         0.01
  Link_07220                  2.67      2.67      2.72      0.07         0.12
  Link_07221                  2.72      2.72      2.72      1.46         1.52
  Link_07222                  2.72      2.72      2.77      0.66         0.65
  Link_07230                  2.77      2.77      2.88      0.48         0.49
  Link_07231                  2.87      2.88      2.88      1.93         1.60
  Link_07233                  3.03      3.18      3.03      3.28         2.87
  Link_07234                  3.08      3.11      3.08      3.73         3.01
  Link_07235                  3.21      3.21      3.23      1.39         1.22
  Link_07270                  1.59      1.59      1.84      0.01         0.01
  Link_07271                  1.84      1.84      2.15      0.02         0.05
  Link_07274                  1.53      1.53      1.55      0.01         0.13
  Link_07277                  2.31      2.31      2.52      0.04         0.09
  Link_07278                  2.54      2.57      2.58      0.07         0.10
  Link_07295                  2.56      2.58      2.62      0.10         0.09
  Link_07296                  2.62      2.62      2.66      0.36         0.23
  Link_07297                  2.66      2.66      2.67      1.48         1.37
  Link_07303                  2.58      2.58      2.60      0.01         0.06
  Link_07306                  1.89      1.89      2.43      0.01         0.01
  Link_07321                  2.26      2.26      2.27      0.01         0.01
  Link_07464                  4.11      4.11      4.13      0.01         0.01
  Link_07578                  2.86      2.86      2.97      0.01         0.01
  Link_07579                  3.64      3.64      3.65      0.01         0.01
  Link_07580                  3.43      3.43      3.64      0.01         0.01
  Link_07687                  4.27      4.27      4.27      0.01         0.01
  Link_07865                  3.03      3.03      3.03      0.01         0.86
  Link_08891                  2.07      2.07      3.06      0.01         0.01
  Link_08912                  2.13      2.13      3.00      0.01         0.01
  Link1_to_ChengXi            3.58      3.63      3.58      0.28         0.16
  Link2_to_ChengXi            3.55      4.72      3.55      3.81         2.51
  Link3_to_ChengXi            2.37      3.13      2.65      2.62         1.77
  Link_to_LaoDongLu           3.25      3.25      3.25      0.01         0.01
  
  
  ***************
  Pumping Summary
  ***************
  
  ---------------------------------------------------------------------------------------------------------
                                                  Min       Avg       Max     Total     Power    % Time Off
                        Percent   Number of      Flow      Flow      Flow    Volume     Usage    Pump Curve
  Pump                 Utilized   Start-Ups       CMS       CMS       CMS  10^6 ltr     Kw-hr    Low   High
  ---------------------------------------------------------------------------------------------------------
  Pump_ChengXi1           79.98         279      0.00      0.17      0.17     2.885     21.95    0.0    0.0
  Pump_ChengXi2           68.87         283      0.00      0.17      0.17     2.484     20.95    0.0    0.0
  Pump_ChengXi3           57.89         160      0.00      0.17      0.17     2.088     17.43    0.0    0.0
  Pump_ChengXi4            6.18          14      0.00      0.17      0.17     0.223      2.90    0.0    0.0
  Pump_LaoDongLu1         37.50          12      0.00      0.03      0.03     0.225      1.39    0.0    0.0
  Pump_LaoDongLu2         26.39          13      0.00      0.03      0.03     0.158      1.14    0.0    0.0
  Pump_LaoDongLu3         15.28           8      0.00      0.03      0.03     0.092      0.57    0.0    0.0
  outfallpump             96.44          14      0.00      0.35      0.45     7.384    142.37    0.0    0.0
  
  
  ***************************
  Link Pollutant Load Summary
  ***************************
  
  ----------------------------------
                                 COD
  Link                            kg
  ----------------------------------
  Link_01146                  41.339
  Link_01147                  55.584
  Link_01148                  69.851
  Link_01149                  80.571
  Link_01150                  94.561
  Link_01151                  67.776
  Link_01152                  62.512
  Link_01274                  16.742
  Link_01275                  33.799
  Link_01276                  70.430
  Link_01292                  23.885
  Link_01294                  99.453
  Link_01295                 114.117
  Link_01296                 129.534
  Link_01297                 165.002
  Link_01298                  16.584
  Link_01299                 196.072
  Link_01300                 210.566
  Link_01301                 224.763
  Link_01302                  16.404
  Link_01312                  20.139
  Link_01313                 228.557
  Link_01314                 231.641
  Link_01315                 236.395
  Link_01316                 245.580
  Link_01317                 260.438
  Link_01318                 275.490
  Link_01319                 290.684
  Link_01320                 344.555
  Link_01323                 220.458
  Link_01324                  18.400
  Link_01325                 251.504
  Link_01326                 265.728
  Link_01327                 159.585
  Link_01328                  23.926
  Link_01329                 182.981
  Link_01330                 182.308
  Link_01331                 183.323
  Link_01332                 170.711
  Link_01333                  18.068
  Link_01334                 201.632
  Link_01335                  20.294
  Link_01336                 234.883
  Link_01337                 131.014
  Link_01338                  18.263
  Link_01339                 109.164
  Link_01340                  12.692
  Link_01341                 111.764
  Link_01342                  17.981
  Link_01343                 137.332
  Link_01344                  26.966
  Link_01345                 173.563
  Link_01346                 187.247
  Link_01347                  45.739
  Link_01348                 176.465
  Link_01349                  26.893
  Link_01350                 189.667
  Link_01351                  17.981
  Link_01352                 212.766
  Link_01556                  17.397
  Link_01557                  32.190
  Link_01558                1555.714
  Link_01559                  39.447
  Link_01560                1541.616
  Link_01561                1608.538
  Link_01562                1624.447
  Link_01563                1638.784
  Link_01564                  15.258
  Link_01565                 132.720
  Link_01566                   9.128
  Link_01567                  18.527
  Link_01568                 157.463
  Link_01569                  37.177
  Link_01570                 181.392
  Link_01571                 137.834
  Link_01572                 212.788
  Link_01573                 152.781
  Link_01574                 136.555
  Link_01575                  19.443
  Link_01576                 101.452
  Link_01577                  66.414
  Link_01578                  50.490
  Link_01579                  18.756
  Link_01580                   7.484
  Link_01581                  12.346
  Link_01582                   9.548
  Link_01731                  28.876
  Link_01732                  48.249
  Link_01733                  66.433
  Link_01734                  18.856
  Link_01735                  24.363
  Link_01751                 138.937
  Link_01752                 151.539
  Link_01753                 180.549
  Link_01754                 193.122
  Link_01755                 206.925
  Link_01756                  16.915
  Link_01757                 254.581
  Link_01758                  17.740
  Link_01759                  17.867
  Link_01760                 288.992
  Link_01761                 298.385
  Link_01762                 308.027
  Link_01763                  17.829
  Link_01764                 331.529
  Link_01765                 342.975
  Link_01766                 344.466
  Link_01767                 427.632
  Link_01768                 422.414
  Link_01769                 418.130
  Link_01770                 412.743
  Link_01771                 408.326
  Link_01772                  39.797
  Link_01773                 410.786
  Link_01774                  39.330
  Link_01775                 195.419
  Link_01776                 178.800
  Link_01777                 162.000
  Link_01778                 198.867
  Link_01779                 122.341
  Link_01780                 215.956
  Link_01781                  62.081
  Link_01782                 411.923
  Link_01783                  18.145
  Link_01784                 410.079
  Link_01785                 410.691
  Link_01786                  67.000
  Link_01787                  39.490
  Link_01788                 458.692
  Link_01789                 461.062
  Link_01790                  24.183
  Link_01791                  27.857
  Link_01792                  21.380
  Link_01793                 481.257
  Link_01794                 485.708
  Link_01795                 490.451
  Link_01796                 495.800
  Link_01797                 500.543
  Link_01798                 964.880
  Link_01799                 952.203
  Link_01800                 976.791
  Link_01801                 540.723
  Link_01802                 887.483
  Link_01803                 938.761
  Link_01804                 759.470
  Link_01805                 744.467
  Link_01806                 730.520
  Link_01807                 715.831
  Link_01808                  21.860
  Link_01809                 685.251
  Link_01810                 658.361
  Link_01811                  14.760
  Link_01812                  57.755
  Link_01813                  50.524
  Link_01814                 611.510
  Link_01815                 600.483
  Link_01816                 586.975
  Link_01817                  16.550
  Link_01818                 568.303
  Link_01819                 535.780
  Link_01820                  32.305
  Link_01821                  31.553
  Link_01822                   7.426
  Link_01823                 255.233
  Link_01824                 251.732
  Link_01825                  84.860
  Link_01826                  86.809
  Link_01827                   4.315
  Link_01828                  91.729
  Link_01829                   7.362
  Link_01830                  98.394
  Link_01831                   3.854
  Link_01832                 102.863
  Link_01833                 104.663
  Link_01834                 108.841
  Link_01835                   4.216
  Link_01836                  56.216
  Link_01837                  20.272
  Link_01838                  42.301
  Link_01839                  52.291
  Link_01840                  48.593
  Link_01841                  44.382
  Link_01842                  33.885
  Link_01843                  25.112
  Link_01844                  20.735
  Link_02074                  18.372
  Link_02075                 150.586
  Link_02076                 155.176
  Link_02077                  34.044
  Link_02078                 184.435
  Link_02079                  20.455
  Link_02080                 217.138
  Link_02081                 230.781
  Link_02082                 244.415
  Link_02083                  20.110
  Link_02084                  18.633
  Link_02085                 410.033
  Link_02086                 421.253
  Link_02087                 429.230
  Link_02088                 436.474
  Link_02089                 442.945
  Link_02090                 465.001
  Link_02091                 452.534
  Link_02092                 440.722
  Link_02093                  17.831
  Link_02094                 401.356
  Link_02095                 390.153
  Link_02096                 417.732
  Link_02097                  24.935
  Link_02098                  87.290
  Link_02099                 405.866
  Link_02100                 393.832
  Link_02101                  60.282
  Link_02102                 401.396
  Link_02103                 364.718
  Link_02104                  39.730
  Link_02105                 249.277
  Link_02106                  25.035
  Link_02107                  15.161
  Link_02108                 215.124
  Link_02109                 199.598
  Link_02110                 325.929
  Link_02111                 244.562
  Link_02112                  23.427
  Link_02113                 178.168
  Link_02114                  60.142
  Link_02115                  56.275
  Link_02116                  52.319
  Link_02117                  47.989
  Link_02118                  43.795
  Link_02123                   8.212
  Link_02124                  12.624
  Link_02125                  17.186
  Link_02126                  21.411
  Link_02127                  39.091
  Link_02128                  36.091
  Link_02129                  57.413
  Link_02130                  25.819
  Link_02131                  22.941
  Link_02132                  18.946
  Link_02133                  14.161
  Link_02134                 182.002
  Link_02135                 185.916
  Link_02136                 197.073
  Link_02137                   7.955
  Link_02138                 228.423
  Link_02139                 224.497
  Link_02140                 220.585
  Link_02141                 216.690
  Link_02142                 212.755
  Link_02143                 201.071
  Link_02383                  14.633
  Link_02384                  14.628
  Link_02385                  23.969
  Link_02386                  32.189
  Link_02387                  69.088
  Link_02388                  82.194
  Link_02389                  25.148
  Link_02390                  95.881
  Link_02391                 132.852
  Link_02392                  46.054
  Link_02393                 190.652
  Link_05459                 125.831
  Link_05460                 279.573
  Link_05461                 338.258
  Link_05462                 417.020
  Link_05463                 477.530
  Link_05464                  49.672
  Link_05496                1524.586
  Link_05662                  84.242
  Link_05663                  17.506
  Link_05664                  60.249
  Link_05665                 359.654
  Link_05677                 212.597
  Link_05678                  21.341
  Link_05720                 872.760
  Link_05721                 643.452
  Link_05722                  22.967
  Link_05723                 121.048
  Link_05725                  25.021
  Link_05726                 403.305
  Link_05727                  16.302
  Link_05728                 413.077
  Link_05729                 415.391
  Link_05730                 322.684
  Link_05731                 248.481
  Link_05732                 240.766
  Link_05742                  31.492
  Link_05743                 149.611
  Link_05744                 258.486
  Link_05752                 325.579
  Link_05753                   6.360
  Link_05754                  29.666
  Link_05791                   8.483
  Link_05812                 236.638
  Link_05813                 159.860
  Link_05814                 129.870
  Link_05815                 169.471
  Link_05816                  30.020
  Link_05817                  40.936
  Link_05818                  41.500
  Link_05983                  41.946
  Link_05984                  26.966
  Link_06039                   4.400
  Link_07220                 196.565
  Link_07221                 211.409
  Link_07222                 165.774
  Link_07230                 180.595
  Link_07231                 195.206
  Link_07233                 413.792
  Link_07234                 428.919
  Link_07235                 208.082
  Link_07270                  47.239
  Link_07271                  74.115
  Link_07274                  27.987
  Link_07277                  99.702
  Link_07278                 120.221
  Link_07295                 124.519
  Link_07296                 142.709
  Link_07297                 181.826
  Link_07303                  19.145
  Link_07306                  97.713
  Link_07321                  13.325
  Link_07464                  28.774
  Link_07578                  33.460
  Link_07579                 349.503
  Link_07580                 303.316
  Link_07687                  26.828
  Link_07865                  12.212
  Link_08891                  20.005
  Link_08912                  41.242
  Link1_to_ChengXi          1653.732
  Link2_to_ChengXi           376.266
  Link3_to_ChengXi           444.038
  Link_to_LaoDongLu          328.006
  Pump_ChengXi1              900.111
  Pump_ChengXi2              800.060
  Pump_ChengXi3              656.783
  Pump_ChengXi4               83.781
  Pump_LaoDongLu1             85.777
  Pump_LaoDongLu2             63.554
  Pump_LaoDongLu3             35.053
  outfallpump               2332.904
  

  Analysis begun on:  Sat Sep  4 15:18:58 2021
  Analysis ended on:  Sat Sep  4 15:18:59 2021
  Total elapsed time: 00:00:01