
  EPA STORM WATER MANAGEMENT MODEL - VERSION 5.1 (Build 5.3.0.dev0)
  --------------------------------------------------------------

  WARNING 04: minimum elevation drop used for Conduit Link_01776
  WARNING 04: minimum elevation drop used for Conduit Link_01779
  WARNING 04: minimum elevation drop used for Conduit Link_07234
  WARNING 02: maximum depth increased for Node Node_06087
  
  *********************************************************
  NOTE: The summary statistics displayed in this report are
  based on results found at every computational time step,  
  not just on results from each reporting time step.
  *********************************************************
  
  ****************
  Analysis Options
  ****************
  Flow Units ............... CMS
  Process Models:
    Rainfall/Runoff ........ YES
    RDII ................... NO
    Snowmelt ............... NO
    Groundwater ............ NO
    Flow Routing ........... YES
    Ponding Allowed ........ YES
    Water Quality .......... YES
  Infiltration Method ...... HORTON
  Flow Routing Method ...... DYNWAVE
  Surcharge Method ......... EXTRAN
  Starting Date ............ 01/02/2011 00:00:00
  Ending Date .............. 01/02/2011 06:00:00
  Antecedent Dry Days ...... 0.0
  Report Time Step ......... 00:15:00
  Wet Time Step ............ 00:05:00
  Dry Time Step ............ 01:00:00
  Routing Time Step ........ 60.00 sec
  Variable Time Step ....... YES
  Maximum Trials ........... 8
  Number of Threads ........ 1
  Head Tolerance ........... 0.001500 m
  
  
  **************************        Volume         Depth
  Runoff Quantity Continuity     hectare-m            mm
  **************************     ---------       -------
  Total Precipitation ......         0.736        25.750
  Evaporation Loss .........         0.000         0.000
  Infiltration Loss ........         0.050         1.733
  Surface Runoff ...........         0.688        24.053
  Final Storage ............         0.000         0.009
  Continuity Error (%) .....        -0.177
  
  
  **************************           COD
  Runoff Quality Continuity             kg
  **************************    ----------
  Initial Buildup ..........         0.000
  Surface Buildup ..........         0.000
  Wet Deposition ...........      1936.875
  Sweeping Removal .........         0.000
  Infiltration Loss ........       130.353
  BMP Removal ..............         0.000
  Surface Runoff ...........      1809.249
  Remaining Buildup ........         0.706
  Continuity Error (%) .....        -0.177
  
  
  **************************        Volume        Volume
  Flow Routing Continuity        hectare-m      10^6 ltr
  **************************     ---------     ---------
  Dry Weather Inflow .......         0.153         1.529
  Wet Weather Inflow .......         0.688         6.879
  Groundwater Inflow .......         0.000         0.000
  RDII Inflow ..............         0.000         0.000
  External Inflow ..........         0.000         0.000
  External Outflow .........         0.701         7.008
  Flooding Loss ............         0.241         2.414
  Evaporation Loss .........         0.000         0.000
  Exfiltration Loss ........         0.000         0.000
  Initial Stored Volume ....         0.077         0.773
  Final Stored Volume ......         0.027         0.275
  Continuity Error (%) .....        -5.621
  
  
  **************************           COD
  Quality Routing Continuity            kg
  **************************    ----------
  Dry Weather Inflow .......       845.606
  Wet Weather Inflow .......      1809.132
  Groundwater Inflow .......         0.000
  RDII Inflow ..............         0.000
  External Inflow ..........         0.000
  External Outflow .........      2073.141
  Flooding Loss ............       665.053
  Exfiltration Loss ........         0.000
  Mass Reacted .............         0.000
  Initial Stored Mass ......       427.257
  Final Stored Mass ........        96.065
  Continuity Error (%) .....         8.038
  
  
  *************************
  Highest Continuity Errors
  *************************
  Node Tank_LaoDongLu (-47.81%)
  Node Node_04574 (-1.35%)
  Node Node_09938 (-1.07%)
  
  
  ***************************
  Time-Step Critical Elements
  ***************************
  Link Link_01778 (87.55%)
  Link Link_01558 (7.96%)
  Link Link_01769 (1.46%)
  
  
  ********************************
  Highest Flow Instability Indexes
  ********************************
  Link Link_01315 (52)
  Link Link_01336 (50)
  Link Link_01323 (50)
  Link Link_01316 (49)
  Link Link_01325 (49)
  
  
  *************************
  Routing Time Step Summary
  *************************
  Minimum Time Step           :     5.00 sec
  Average Time Step           :     5.00 sec
  Maximum Time Step           :     5.00 sec
  Percent in Steady State     :     0.00
  Average Iterations per Step :     6.00
  Percent Not Converging      :    39.79
  
  
  ***************************
  Subcatchment Runoff Summary
  ***************************
  
  ------------------------------------------------------------------------------------------------------------------------------
                            Total      Total      Total      Total     Imperv       Perv      Total       Total     Peak  Runoff
                           Precip      Runon       Evap      Infil     Runoff     Runoff     Runoff      Runoff   Runoff   Coeff
  Subcatchment                 mm         mm         mm         mm         mm         mm         mm    10^6 ltr      CMS
  ------------------------------------------------------------------------------------------------------------------------------
  2707                      25.75       0.00       0.00       1.74       6.44      17.61      24.05        0.02     0.00   0.934
  2708                      25.75       0.00       0.00       1.74       6.44      17.61      24.05        0.02     0.00   0.934
  2709                      25.75       0.00       0.00       1.74       6.44      17.61      24.05        0.02     0.00   0.934
  2710                      25.75       0.00       0.00       1.74       6.44      17.61      24.05        0.02     0.00   0.934
  2712                      25.75       0.00       0.00       1.74       6.44      17.61      24.05        0.02     0.00   0.934
  2713                      25.75       0.00       0.00       1.74       6.44      17.61      24.05        0.02     0.00   0.934
  2714                      25.75       0.00       0.00       1.74       6.44      17.61      24.05        0.02     0.00   0.934
  2715                      25.75       0.00       0.00       1.74       6.44      17.61      24.05        0.02     0.00   0.934
  2716                      25.75       0.00       0.00       1.74       6.44      17.61      24.05        0.02     0.00   0.934
  2717                      25.75       0.00       0.00       1.74       6.44      17.61      24.05        0.02     0.00   0.934
  2718                      25.75       0.00       0.00       1.74       6.44      17.61      24.05        0.02     0.00   0.934
  2719                      25.75       0.00       0.00       1.74       6.44      17.61      24.05        0.02     0.00   0.934
  2721                      25.75       0.00       0.00       1.74       6.44      17.61      24.05        0.02     0.00   0.934
  2722                      25.75       0.00       0.00       1.74       6.44      17.61      24.05        0.02     0.00   0.934
  2723                      25.75       0.00       0.00       1.74       6.44      17.61      24.05        0.02     0.00   0.934
  2724                      25.75       0.00       0.00       1.74       6.44      17.61      24.05        0.02     0.00   0.934
  2725                      25.75       0.00       0.00       1.74       6.44      17.61      24.05        0.02     0.00   0.934
  2726                      25.75       0.00       0.00       1.74       6.44      17.61      24.05        0.02     0.00   0.934
  2727                      25.75       0.00       0.00       1.74       6.44      17.61      24.05        0.02     0.00   0.934
  2728                      25.75       0.00       0.00       1.74       6.44      17.61      24.05        0.02     0.00   0.934
  2729                      25.75       0.00       0.00       1.74       6.44      17.61      24.05        0.02     0.00   0.934
  2730                      25.75       0.00       0.00       1.74       6.44      17.61      24.05        0.02     0.00   0.934
  2731                      25.75       0.00       0.00       1.74       6.44      17.61      24.05        0.02     0.00   0.934
  2732                      25.75       0.00       0.00       1.74       6.44      17.61      24.05        0.02     0.00   0.934
  2733                      25.75       0.00       0.00       1.74       6.44      17.61      24.05        0.02     0.00   0.934
  2734                      25.75       0.00       0.00       1.74       6.44      17.61      24.05        0.02     0.00   0.934
  2735                      25.75       0.00       0.00       1.74       6.44      17.61      24.05        0.02     0.00   0.934
  2736                      25.75       0.00       0.00       1.74       6.44      17.61      24.05        0.02     0.00   0.934
  2737                      25.75       0.00       0.00       1.74       6.44      17.61      24.05        0.02     0.00   0.934
  2738                      25.75       0.00       0.00       1.74       6.44      17.61      24.05        0.02     0.00   0.934
  2739                      25.75       0.00       0.00       1.74       6.44      17.61      24.05        0.02     0.00   0.934
  2740                      25.75       0.00       0.00       1.74       6.44      17.61      24.05        0.02     0.00   0.934
  2741                      25.75       0.00       0.00       1.74       6.44      17.61      24.05        0.02     0.00   0.934
  2742                      25.75       0.00       0.00       1.74       6.44      17.61      24.05        0.02     0.00   0.934
  2743                      25.75       0.00       0.00       1.74       6.44      17.61      24.05        0.02     0.00   0.934
  2744                      25.75       0.00       0.00       1.74       6.44      17.61      24.05        0.02     0.00   0.934
  2745                      25.75       0.00       0.00       1.74       6.44      17.61      24.05        0.02     0.00   0.934
  2746                      25.75       0.00       0.00       1.74       6.44      17.61      24.05        0.02     0.00   0.934
  2747                      25.75       0.00       0.00       1.74       6.44      17.61      24.05        0.02     0.00   0.934
  2748                      25.75       0.00       0.00       1.74       6.44      17.61      24.05        0.02     0.00   0.934
  2749                      25.75       0.00       0.00       1.74       6.44      17.61      24.05        0.02     0.00   0.934
  2750                      25.75       0.00       0.00       1.74       6.44      17.61      24.05        0.02     0.00   0.934
  2751                      25.75       0.00       0.00       1.74       6.44      17.61      24.05        0.02     0.00   0.934
  2752                      25.75       0.00       0.00       1.74       6.44      17.61      24.05        0.02     0.00   0.934
  2753                      25.75       0.00       0.00       1.74       6.44      17.61      24.05        0.02     0.00   0.934
  2754                      25.75       0.00       0.00       1.74       6.44      17.61      24.05        0.02     0.00   0.934
  2755                      25.75       0.00       0.00       1.74       6.44      17.61      24.05        0.02     0.00   0.934
  2756                      25.75       0.00       0.00       1.74       6.44      17.61      24.05        0.02     0.00   0.934
  2964                      25.75       0.00       0.00       1.74       6.44      17.61      24.05        0.02     0.00   0.934
  2969                      25.75       0.00       0.00       1.74       6.44      17.61      24.05        0.02     0.00   0.934
  2970                      25.75       0.00       0.00       1.74       6.44      17.61      24.05        0.02     0.00   0.934
  2974                      25.75       0.00       0.00       1.74       6.44      17.61      24.05        0.02     0.00   0.934
  2975                      25.75       0.00       0.00       1.74       6.44      17.61      24.05        0.02     0.00   0.934
  2976                      25.75       0.00       0.00       1.74       6.44      17.61      24.05        0.02     0.00   0.934
  2977                      25.75       0.00       0.00       1.74       6.44      17.61      24.05        0.02     0.00   0.934
  2978                      25.75       0.00       0.00       1.74       6.44      17.61      24.05        0.02     0.00   0.934
  2979                      25.75       0.00       0.00       1.74       6.44      17.61      24.05        0.02     0.00   0.934
  2980                      25.75       0.00       0.00       1.74       6.44      17.61      24.05        0.02     0.00   0.934
  2981                      25.75       0.00       0.00       1.74       6.44      17.61      24.05        0.02     0.00   0.934
  2982                      25.75       0.00       0.00       1.74       6.44      17.61      24.05        0.02     0.00   0.934
  2984                      25.75       0.00       0.00       1.74       6.44      17.61      24.05        0.02     0.00   0.934
  2985                      25.75       0.00       0.00       1.74       6.44      17.61      24.05        0.02     0.00   0.934
  3925                      25.75       0.00       0.00       1.74       6.44      17.61      24.05        0.02     0.00   0.934
  3926                      25.75       0.00       0.00       1.74       6.44      17.61      24.05        0.02     0.00   0.934
  3927                      25.75       0.00       0.00       1.74       6.44      17.61      24.05        0.02     0.00   0.934
  3928                      25.75       0.00       0.00       1.74       6.44      17.61      24.05        0.02     0.00   0.934
  3929                      25.75       0.00       0.00       1.74       6.44      17.61      24.05        0.02     0.00   0.934
  3930                      25.75       0.00       0.00       1.74       6.44      17.61      24.05        0.02     0.00   0.934
  3931                      25.75       0.00       0.00       1.74       6.44      17.61      24.05        0.02     0.00   0.934
  3932                      25.75       0.00       0.00       1.74       6.44      17.61      24.05        0.02     0.00   0.934
  3933                      25.75       0.00       0.00       1.74       6.44      17.61      24.05        0.02     0.00   0.934
  3934                      25.75       0.00       0.00       1.74       6.44      17.61      24.05        0.02     0.00   0.934
  3935                      25.75       0.00       0.00       1.74       6.44      17.61      24.05        0.02     0.00   0.934
  3936                      25.75       0.00       0.00       1.74       6.44      17.61      24.05        0.02     0.00   0.934
  3937                      25.75       0.00       0.00       1.74       6.44      17.61      24.05        0.02     0.00   0.934
  3938                      25.75       0.00       0.00       1.74       6.44      17.61      24.05        0.02     0.00   0.934
  3939                      25.75       0.00       0.00       1.74       6.44      17.61      24.05        0.02     0.00   0.934
  3940                      25.75       0.00       0.00       1.74       6.44      17.61      24.05        0.02     0.00   0.934
  3941                      25.75       0.00       0.00       1.74       6.44      17.61      24.05        0.02     0.00   0.934
  3942                      25.75       0.00       0.00       1.74       6.44      17.61      24.05        0.02     0.00   0.934
  3943                      25.75       0.00       0.00       1.74       6.44      17.61      24.05        0.02     0.00   0.934
  3944                      25.75       0.00       0.00       1.74       6.44      17.61      24.05        0.02     0.00   0.934
  3945                      25.75       0.00       0.00       1.74       6.44      17.61      24.05        0.02     0.00   0.934
  3946                      25.75       0.00       0.00       1.74       6.44      17.61      24.05        0.02     0.00   0.934
  3947                      25.75       0.00       0.00       1.74       6.44      17.61      24.05        0.02     0.00   0.934
  3948                      25.75       0.00       0.00       1.74       6.44      17.61      24.05        0.02     0.00   0.934
  3949                      25.75       0.00       0.00       1.74       6.44      17.61      24.05        0.02     0.00   0.934
  3950                      25.75       0.00       0.00       1.74       6.44      17.61      24.05        0.02     0.00   0.934
  3951                      25.75       0.00       0.00       1.74       6.44      17.61      24.05        0.02     0.00   0.934
  3952                      25.75       0.00       0.00       1.74       6.44      17.61      24.05        0.02     0.00   0.934
  3953                      25.75       0.00       0.00       1.74       6.44      17.61      24.05        0.02     0.00   0.934
  3954                      25.75       0.00       0.00       1.74       6.44      17.61      24.05        0.02     0.00   0.934
  3955                      25.75       0.00       0.00       1.74       6.44      17.61      24.05        0.02     0.00   0.934
  3956                      25.75       0.00       0.00       1.74       6.44      17.61      24.05        0.02     0.00   0.934
  4032                      25.75       0.00       0.00       1.74       6.44      17.61      24.05        0.02     0.00   0.934
  4033                      25.75       0.00       0.00       1.74       6.44      17.61      24.05        0.02     0.00   0.934
  4041                      25.75       0.00       0.00       1.74       6.44      17.61      24.05        0.02     0.00   0.934
  4051                      25.75       0.00       0.00       1.74       6.44      17.61      24.05        0.02     0.00   0.934
  4055                      25.75       0.00       0.00       1.74       6.44      17.61      24.05        0.02     0.00   0.934
  4056                      25.75       0.00       0.00       1.74       6.44      17.61      24.05        0.02     0.00   0.934
  4058                      25.75       0.00       0.00       1.74       6.44      17.61      24.05        0.02     0.00   0.934
  4385                      25.75       0.00       0.00       1.74       6.44      17.61      24.05        0.02     0.00   0.934
  4386                      25.75       0.00       0.00       1.74       6.44      17.61      24.05        0.02     0.00   0.934
  4387                      25.75       0.00       0.00       1.74       6.44      17.61      24.05        0.02     0.00   0.934
  4388                      25.75       0.00       0.00       1.74       6.44      17.61      24.05        0.02     0.00   0.934
  4389                      25.75       0.00       0.00       1.74       6.44      17.61      24.05        0.02     0.00   0.934
  4390                      25.75       0.00       0.00       1.74       6.44      17.61      24.05        0.02     0.00   0.934
  4391                      25.75       0.00       0.00       1.74       6.44      17.61      24.05        0.02     0.00   0.934
  4392                      25.75       0.00       0.00       1.74       6.44      17.61      24.05        0.02     0.00   0.934
  4393                      25.75       0.00       0.00       1.74       6.44      17.61      24.05        0.02     0.00   0.934
  4394                      25.75       0.00       0.00       1.74       6.44      17.61      24.05        0.02     0.00   0.934
  4395                      25.75       0.00       0.00       1.74       6.44      17.61      24.05        0.02     0.00   0.934
  4396                      25.75       0.00       0.00       1.74       6.44      17.61      24.05        0.02     0.00   0.934
  4397                      25.75       0.00       0.00       1.74       6.44      17.61      24.05        0.02     0.00   0.934
  4398                      25.75       0.00       0.00       1.74       6.44      17.61      24.05        0.02     0.00   0.934
  4429                      25.75       0.00       0.00       1.74       6.44      17.61      24.05        0.02     0.00   0.934
  4430                      25.75       0.00       0.00       1.74       6.44      17.61      24.05        0.02     0.00   0.934
  4431                      25.75       0.00       0.00       1.74       6.44      17.61      24.05        0.02     0.00   0.934
  4432                      25.75       0.00       0.00       1.74       6.44      17.61      24.05        0.02     0.00   0.934
  4433                      25.75       0.00       0.00       1.74       6.44      17.61      24.05        0.02     0.00   0.934
  4434                      25.75       0.00       0.00       1.74       6.44      17.61      24.05        0.02     0.00   0.934
  4435                      25.75       0.00       0.00       1.74       6.44      17.61      24.05        0.02     0.00   0.934
  4436                      25.75       0.00       0.00       1.74       6.44      17.61      24.05        0.02     0.00   0.934
  4437                      25.75       0.00       0.00       1.74       6.44      17.61      24.05        0.02     0.00   0.934
  4438                      25.75       0.00       0.00       1.74       6.44      17.61      24.05        0.02     0.00   0.934
  4439                      25.75       0.00       0.00       1.74       6.44      17.61      24.05        0.02     0.00   0.934
  4440                      25.75       0.00       0.00       1.74       6.44      17.61      24.05        0.02     0.00   0.934
  4441                      25.75       0.00       0.00       1.74       6.44      17.61      24.05        0.02     0.00   0.934
  4442                      25.75       0.00       0.00       1.74       6.44      17.61      24.05        0.02     0.00   0.934
  4443                      25.75       0.00       0.00       1.74       6.44      17.61      24.05        0.02     0.00   0.934
  4444                      25.75       0.00       0.00       1.74       6.44      17.61      24.05        0.02     0.00   0.934
  4445                      25.75       0.00       0.00       1.74       6.44      17.61      24.05        0.02     0.00   0.934
  4446                      25.75       0.00       0.00       1.74       6.44      17.61      24.05        0.02     0.00   0.934
  4447                      25.75       0.00       0.00       1.74       6.44      17.61      24.05        0.02     0.00   0.934
  4448                      25.75       0.00       0.00       1.74       6.44      17.61      24.05        0.02     0.00   0.934
  4449                      25.75       0.00       0.00       1.74       6.44      17.61      24.05        0.02     0.00   0.934
  4450                      25.75       0.00       0.00       1.74       6.44      17.61      24.05        0.02     0.00   0.934
  4451                      25.75       0.00       0.00       1.74       6.44      17.61      24.05        0.02     0.00   0.934
  4452                      25.75       0.00       0.00       1.74       6.44      17.61      24.05        0.02     0.00   0.934
  4453                      25.75       0.00       0.00       1.74       6.44      17.61      24.05        0.02     0.00   0.934
  4454                      25.75       0.00       0.00       1.74       6.44      17.61      24.05        0.02     0.00   0.934
  4462                      25.75       0.00       0.00       1.74       6.44      17.61      24.05        0.02     0.00   0.934
  4463                      25.75       0.00       0.00       1.74       6.44      17.61      24.05        0.02     0.00   0.934
  4563                      25.75       0.00       0.00       1.74       6.44      17.61      24.05        0.02     0.00   0.934
  4564                      25.75       0.00       0.00       1.74       6.44      17.61      24.05        0.02     0.00   0.934
  4565                      25.75       0.00       0.00       1.74       6.44      17.61      24.05        0.02     0.00   0.934
  4566                      25.75       0.00       0.00       1.74       6.44      17.61      24.05        0.02     0.00   0.934
  4567                      25.75       0.00       0.00       1.74       6.44      17.61      24.05        0.02     0.00   0.934
  4568                      25.75       0.00       0.00       1.74       6.44      17.61      24.05        0.02     0.00   0.934
  4569                      25.75       0.00       0.00       1.74       6.44      17.61      24.05        0.02     0.00   0.934
  4570                      25.75       0.00       0.00       1.74       6.44      17.61      24.05        0.02     0.00   0.934
  4571                      25.75       0.00       0.00       1.74       6.44      17.61      24.05        0.02     0.00   0.934
  4572                      25.75       0.00       0.00       1.74       6.44      17.61      24.05        0.02     0.00   0.934
  4573                      25.75       0.00       0.00       1.74       6.44      17.61      24.05        0.02     0.00   0.934
  4574                      25.75       0.00       0.00       1.74       6.44      17.61      24.05        0.02     0.00   0.934
  4575                      25.75       0.00       0.00       1.74       6.44      17.61      24.05        0.02     0.00   0.934
  4576                      25.75       0.00       0.00       1.74       6.44      17.61      24.05        0.02     0.00   0.934
  4577                      25.75       0.00       0.00       1.74       6.44      17.61      24.05        0.02     0.00   0.934
  4578                      25.75       0.00       0.00       1.74       6.44      17.61      24.05        0.02     0.00   0.934
  4579                      25.75       0.00       0.00       1.74       6.44      17.61      24.05        0.02     0.00   0.934
  4580                      25.75       0.00       0.00       1.74       6.44      17.61      24.05        0.02     0.00   0.934
  4581                      25.75       0.00       0.00       1.74       6.44      17.61      24.05        0.02     0.00   0.934
  4624                      25.75       0.00       0.00       1.74       6.44      17.61      24.05        0.02     0.00   0.934
  4625                      25.75       0.00       0.00       1.74       6.44      17.61      24.05        0.02     0.00   0.934
  4644                      25.75       0.00       0.00       1.74       6.44      17.61      24.05        0.02     0.00   0.934
  4645                      25.75       0.00       0.00       1.74       6.44      17.61      24.05        0.02     0.00   0.934
  4646                      25.75       0.00       0.00       1.74       6.44      17.61      24.05        0.02     0.00   0.934
  4679                      25.75       0.00       0.00       1.74       6.44      17.61      24.05        0.02     0.00   0.934
  4680                      25.75       0.00       0.00       1.74       6.44      17.61      24.05        0.02     0.00   0.934
  4681                      25.75       0.00       0.00       1.74       6.44      17.61      24.05        0.02     0.00   0.934
  4682                      25.75       0.00       0.00       1.74       6.44      17.61      24.05        0.02     0.00   0.934
  4683                      25.75       0.00       0.00       1.74       6.44      17.61      24.05        0.02     0.00   0.934
  4711                      25.75       0.00       0.00       1.74       6.44      17.61      24.05        0.02     0.00   0.934
  4712                      25.75       0.00       0.00       1.74       6.44      17.61      24.05        0.02     0.00   0.934
  4713                      25.75       0.00       0.00       1.74       6.44      17.61      24.05        0.02     0.00   0.934
  4714                      25.75       0.00       0.00       1.74       6.44      17.61      24.05        0.02     0.00   0.934
  4715                      25.75       0.00       0.00       1.74       6.44      17.61      24.05        0.02     0.00   0.934
  4716                      25.75       0.00       0.00       1.74       6.44      17.61      24.05        0.02     0.00   0.934
  4717                      25.75       0.00       0.00       1.74       6.44      17.61      24.05        0.02     0.00   0.934
  4718                      25.75       0.00       0.00       1.74       6.44      17.61      24.05        0.02     0.00   0.934
  4722                      25.75       0.00       0.00       1.74       6.44      17.61      24.05        0.02     0.00   0.934
  4760                      25.75       0.00       0.00       1.74       6.44      17.61      24.05        0.02     0.00   0.934
  4761                      25.75       0.00       0.00       1.74       6.44      17.61      24.05        0.02     0.00   0.934
  4765                      25.75       0.00       0.00       1.74       6.44      17.61      24.05        0.02     0.00   0.934
  4766                      25.75       0.00       0.00       1.74       6.44      17.61      24.05        0.02     0.00   0.934
  4767                      25.75       0.00       0.00       1.74       6.44      17.61      24.05        0.02     0.00   0.934
  4768                      25.75       0.00       0.00       1.74       6.44      17.61      24.05        0.02     0.00   0.934
  4769                      25.75       0.00       0.00       1.74       6.44      17.61      24.05        0.02     0.00   0.934
  4855                      25.75       0.00       0.00       1.74       6.44      17.61      24.05        0.02     0.00   0.934
  4856                      25.75       0.00       0.00       1.74       6.44      17.61      24.05        0.02     0.00   0.934
  5284                      25.75       0.00       0.00       1.74       6.44      17.61      24.05        0.02     0.00   0.934
  5285                      25.75       0.00       0.00       1.74       6.44      17.61      24.05        0.02     0.00   0.934
  5286                      25.75       0.00       0.00       1.74       6.44      17.61      24.05        0.02     0.00   0.934
  5287                      25.75       0.00       0.00       1.74       6.44      17.61      24.05        0.02     0.00   0.934
  5288                      25.75       0.00       0.00       1.74       6.44      17.61      24.05        0.02     0.00   0.934
  5289                      25.75       0.00       0.00       1.74       6.44      17.61      24.05        0.02     0.00   0.934
  5290                      25.75       0.00       0.00       1.74       6.44      17.61      24.05        0.02     0.00   0.934
  5291                      25.75       0.00       0.00       1.74       6.44      17.61      24.05        0.02     0.00   0.934
  5292                      25.75       0.00       0.00       1.74       6.44      17.61      24.05        0.02     0.00   0.934
  5293                      25.75       0.00       0.00       1.74       6.44      17.61      24.05        0.02     0.00   0.934
  5294                      25.75       0.00       0.00       1.74       6.44      17.61      24.05        0.02     0.00   0.934
  5295                      25.75       0.00       0.00       1.74       6.44      17.61      24.05        0.02     0.00   0.934
  5296                      25.75       0.00       0.00       1.74       6.44      17.61      24.05        0.02     0.00   0.934
  5297                      25.75       0.00       0.00       1.74       6.44      17.61      24.05        0.02     0.00   0.934
  5298                      25.75       0.00       0.00       1.74       6.44      17.61      24.05        0.02     0.00   0.934
  5299                      25.75       0.00       0.00       1.74       6.44      17.61      24.05        0.02     0.00   0.934
  5300                      25.75       0.00       0.00       1.74       6.44      17.61      24.05        0.02     0.00   0.934
  5301                      25.75       0.00       0.00       1.74       6.44      17.61      24.05        0.02     0.00   0.934
  5302                      25.75       0.00       0.00       1.74       6.44      17.61      24.05        0.02     0.00   0.934
  5303                      25.75       0.00       0.00       1.74       6.44      17.61      24.05        0.02     0.00   0.934
  5304                      25.75       0.00       0.00       1.74       6.44      17.61      24.05        0.02     0.00   0.934
  5305                      25.75       0.00       0.00       1.74       6.44      17.61      24.05        0.02     0.00   0.934
  5306                      25.75       0.00       0.00       1.74       6.44      17.61      24.05        0.02     0.00   0.934
  5307                      25.75       0.00       0.00       1.74       6.44      17.61      24.05        0.02     0.00   0.934
  5308                      25.75       0.00       0.00       1.74       6.44      17.61      24.05        0.02     0.00   0.934
  5309                      25.75       0.00       0.00       1.74       6.44      17.61      24.05        0.02     0.00   0.934
  5310                      25.75       0.00       0.00       1.74       6.44      17.61      24.05        0.02     0.00   0.934
  5311                      25.75       0.00       0.00       1.74       6.44      17.61      24.05        0.02     0.00   0.934
  5312                      25.75       0.00       0.00       1.74       6.44      17.61      24.05        0.02     0.00   0.934
  5313                      25.75       0.00       0.00       1.74       6.44      17.61      24.05        0.02     0.00   0.934
  5314                      25.75       0.00       0.00       1.74       6.44      17.61      24.05        0.02     0.00   0.934
  5315                      25.75       0.00       0.00       1.74       6.44      17.61      24.05        0.02     0.00   0.934
  5316                      25.75       0.00       0.00       1.74       6.44      17.61      24.05        0.02     0.00   0.934
  5317                      25.75       0.00       0.00       1.74       6.44      17.61      24.05        0.02     0.00   0.934
  5318                      25.75       0.00       0.00       1.74       6.44      17.61      24.05        0.02     0.00   0.934
  5319                      25.75       0.00       0.00       1.74       6.44      17.61      24.05        0.02     0.00   0.934
  5320                      25.75       0.00       0.00       1.74       6.44      17.61      24.05        0.02     0.00   0.934
  5321                      25.75       0.00       0.00       1.74       6.44      17.61      24.05        0.02     0.00   0.934
  5322                      25.75       0.00       0.00       1.74       6.44      17.61      24.05        0.02     0.00   0.934
  5323                      25.75       0.00       0.00       1.74       6.44      17.61      24.05        0.02     0.00   0.934
  5324                      25.75       0.00       0.00       1.74       6.44      17.61      24.05        0.02     0.00   0.934
  5325                      25.75       0.00       0.00       1.74       6.44      17.61      24.05        0.02     0.00   0.934
  5326                      25.75       0.00       0.00       1.74       6.44      17.61      24.05        0.02     0.00   0.934
  5327                      25.75       0.00       0.00       1.74       6.44      17.61      24.05        0.02     0.00   0.934
  5328                      25.75       0.00       0.00       1.74       6.44      17.61      24.05        0.02     0.00   0.934
  5329                      25.75       0.00       0.00       1.74       6.44      17.61      24.05        0.02     0.00   0.934
  5330                      25.75       0.00       0.00       1.74       6.44      17.61      24.05        0.02     0.00   0.934
  5333                      25.75       0.00       0.00       1.74       6.44      17.61      24.05        0.02     0.00   0.934
  5334                      25.75       0.00       0.00       1.74       6.44      17.61      24.05        0.02     0.00   0.934
  6040                      25.75       0.00       0.00       1.74       6.44      17.61      24.05        0.02     0.00   0.934
  6041                      25.75       0.00       0.00       1.74       6.44      17.61      24.05        0.02     0.00   0.934
  6162                      25.75       0.00       0.00       1.74       6.44      17.61      24.05        0.02     0.00   0.934
  7207                      25.75       0.00       0.00       1.74       6.44      17.61      24.05        0.02     0.00   0.934
  7208                      25.75       0.00       0.00       1.74       6.44      17.61      24.05        0.02     0.00   0.934
  7213                      25.75       0.00       0.00       1.74       6.44      17.61      24.05        0.02     0.00   0.934
  7214                      25.75       0.00       0.00       1.74       6.44      17.61      24.05        0.02     0.00   0.934
  7219                      25.75       0.00       0.00       1.74       6.44      17.61      24.05        0.02     0.00   0.934
  7220                      25.75       0.00       0.00       1.74       6.44      17.61      24.05        0.02     0.00   0.934
  7221                      25.75       0.00       0.00       1.74       6.44      17.61      24.05        0.02     0.00   0.934
  7225                      25.75       0.00       0.00       1.74       6.44      17.61      24.05        0.02     0.00   0.934
  7229                      25.75       0.00       0.00       1.74       6.44      17.61      24.05        0.02     0.00   0.934
  7231                      25.75       0.00       0.00       1.74       6.44      17.61      24.05        0.02     0.00   0.934
  7268                      25.75       0.00       0.00       1.74       6.44      17.61      24.05        0.02     0.00   0.934
  7269                      25.75       0.00       0.00       1.74       6.44      17.61      24.05        0.02     0.00   0.934
  7271                      25.75       0.00       0.00       1.74       6.44      17.61      24.05        0.02     0.00   0.934
  7272                      25.75       0.00       0.00       1.74       6.44      17.61      24.05        0.02     0.00   0.934
  7273                      25.75       0.00       0.00       1.74       6.44      17.61      24.05        0.02     0.00   0.934
  7433                      25.75       0.00       0.00       1.74       6.44      17.61      24.05        0.02     0.00   0.934
  7434                      25.75       0.00       0.00       1.74       6.44      17.61      24.05        0.02     0.00   0.934
  7544                      25.75       0.00       0.00       1.74       6.44      17.61      24.05        0.02     0.00   0.934
  7545                      25.75       0.00       0.00       1.74       6.44      17.61      24.05        0.02     0.00   0.934
  8737                      25.75       0.00       0.00       1.74       6.44      17.61      24.05        0.02     0.00   0.934
  8818                      25.75       0.00       0.00       1.74       6.44      17.61      24.05        0.02     0.00   0.934
  9942                      25.75       0.00       0.00       1.74       6.44      17.61      24.05        0.02     0.00   0.934
  9957                      25.75       0.00       0.00       1.74       6.44      17.61      24.05        0.02     0.00   0.934
  4399                      25.75       0.00       0.00       1.68       6.44      17.66      24.10        0.01     0.00   0.936
  4400                      25.75       0.00       0.00       1.68       6.44      17.66      24.10        0.01     0.00   0.936
  4401                      25.75       0.00       0.00       1.68       6.44      17.66      24.10        0.01     0.00   0.936
  4402                      25.75       0.00       0.00       1.68       6.44      17.66      24.10        0.01     0.00   0.936
  4403                      25.75       0.00       0.00       1.68       6.44      17.66      24.10        0.01     0.00   0.936
  4404                      25.75       0.00       0.00       1.68       6.44      17.66      24.10        0.01     0.00   0.936
  4405                      25.75       0.00       0.00       1.68       6.44      17.66      24.10        0.01     0.00   0.936
  4406                      25.75       0.00       0.00       1.68       6.44      17.66      24.10        0.01     0.00   0.936
  4407                      25.75       0.00       0.00       1.68       6.44      17.66      24.10        0.01     0.00   0.936
  4408                      25.75       0.00       0.00       1.68       6.44      17.66      24.10        0.01     0.00   0.936
  4409                      25.75       0.00       0.00       1.68       6.44      17.66      24.10        0.01     0.00   0.936
  4410                      25.75       0.00       0.00       1.68       6.44      17.66      24.10        0.01     0.00   0.936
  4411                      25.75       0.00       0.00       1.68       6.44      17.66      24.10        0.01     0.00   0.936
  4412                      25.75       0.00       0.00       1.68       6.44      17.66      24.10        0.01     0.00   0.936
  4423                      25.75       0.00       0.00       1.68       6.44      17.66      24.10        0.01     0.00   0.936
  4424                      25.75       0.00       0.00       1.68       6.44      17.66      24.10        0.01     0.00   0.936
  4425                      25.75       0.00       0.00       1.68       6.44      17.66      24.10        0.01     0.00   0.936
  4426                      25.75       0.00       0.00       1.68       6.44      17.66      24.10        0.01     0.00   0.936
  4427                      25.75       0.00       0.00       1.68       6.44      17.66      24.10        0.01     0.00   0.936
  4428                      25.75       0.00       0.00       1.68       6.44      17.66      24.10        0.01     0.00   0.936
  4455                      25.75       0.00       0.00       1.68       6.44      17.66      24.10        0.01     0.00   0.936
  4456                      25.75       0.00       0.00       1.68       6.44      17.66      24.10        0.01     0.00   0.936
  4457                      25.75       0.00       0.00       1.68       6.44      17.66      24.10        0.01     0.00   0.936
  4458                      25.75       0.00       0.00       1.68       6.44      17.66      24.10        0.01     0.00   0.936
  4459                      25.75       0.00       0.00       1.68       6.44      17.66      24.10        0.01     0.00   0.936
  4460                      25.75       0.00       0.00       1.68       6.44      17.66      24.10        0.01     0.00   0.936
  4461                      25.75       0.00       0.00       1.68       6.44      17.66      24.10        0.01     0.00   0.936
  4464                      25.75       0.00       0.00       1.68       6.44      17.66      24.10        0.01     0.00   0.936
  4465                      25.75       0.00       0.00       1.68       6.44      17.66      24.10        0.01     0.00   0.936
  4466                      25.75       0.00       0.00       1.68       6.44      17.66      24.10        0.01     0.00   0.936
  4467                      25.75       0.00       0.00       1.68       6.44      17.66      24.10        0.01     0.00   0.936
  4468                      25.75       0.00       0.00       1.68       6.44      17.66      24.10        0.01     0.00   0.936
  4469                      25.75       0.00       0.00       1.68       6.44      17.66      24.10        0.01     0.00   0.936
  4470                      25.75       0.00       0.00       1.68       6.44      17.66      24.10        0.01     0.00   0.936
  4471                      25.75       0.00       0.00       1.68       6.44      17.66      24.10        0.01     0.00   0.936
  4472                      25.75       0.00       0.00       1.68       6.44      17.66      24.10        0.01     0.00   0.936
  4473                      25.75       0.00       0.00       1.68       6.44      17.66      24.10        0.01     0.00   0.936
  4474                      25.75       0.00       0.00       1.68       6.44      17.66      24.10        0.01     0.00   0.936
  4628                      25.75       0.00       0.00       1.68       6.44      17.66      24.10        0.01     0.00   0.936
  4631                      25.75       0.00       0.00       1.68       6.44      17.66      24.10        0.01     0.00   0.936
  4632                      25.75       0.00       0.00       1.68       6.44      17.66      24.10        0.01     0.00   0.936
  4633                      25.75       0.00       0.00       1.68       6.44      17.66      24.10        0.01     0.00   0.936
  4634                      25.75       0.00       0.00       1.68       6.44      17.66      24.10        0.01     0.00   0.936
  4637                      25.75       0.00       0.00       1.68       6.44      17.66      24.10        0.01     0.00   0.936
  4686                      25.75       0.00       0.00       1.68       6.44      17.66      24.10        0.01     0.00   0.936
  4687                      25.75       0.00       0.00       1.68       6.44      17.66      24.10        0.01     0.00   0.936
  4688                      25.75       0.00       0.00       1.68       6.44      17.66      24.10        0.01     0.00   0.936
  5032                      25.75       0.00       0.00       1.68       6.44      17.66      24.10        0.01     0.00   0.936
  5331                      25.75       0.00       0.00       1.68       6.44      17.66      24.10        0.01     0.00   0.936
  5332                      25.75       0.00       0.00       1.68       6.44      17.66      24.10        0.01     0.00   0.936
  5335                      25.75       0.00       0.00       1.68       6.44      17.66      24.10        0.01     0.00   0.936
  5336                      25.75       0.00       0.00       1.68       6.44      17.66      24.10        0.01     0.00   0.936
  5337                      25.75       0.00       0.00       1.68       6.44      17.66      24.10        0.01     0.00   0.936
  5338                      25.75       0.00       0.00       1.68       6.44      17.66      24.10        0.01     0.00   0.936
  5339                      25.75       0.00       0.00       1.68       6.44      17.66      24.10        0.01     0.00   0.936
  5340                      25.75       0.00       0.00       1.68       6.44      17.66      24.10        0.01     0.00   0.936
  5341                      25.75       0.00       0.00       1.68       6.44      17.66      24.10        0.01     0.00   0.936
  5342                      25.75       0.00       0.00       1.68       6.44      17.66      24.10        0.01     0.00   0.936
  5343                      25.75       0.00       0.00       1.68       6.44      17.66      24.10        0.01     0.00   0.936
  5344                      25.75       0.00       0.00       1.68       6.44      17.66      24.10        0.01     0.00   0.936
  5345                      25.75       0.00       0.00       1.68       6.44      17.66      24.10        0.01     0.00   0.936
  5346                      25.75       0.00       0.00       1.68       6.44      17.66      24.10        0.01     0.00   0.936
  5347                      25.75       0.00       0.00       1.68       6.44      17.66      24.10        0.01     0.00   0.936
  5348                      25.75       0.00       0.00       1.68       6.44      17.66      24.10        0.01     0.00   0.936
  5349                      25.75       0.00       0.00       1.68       6.44      17.66      24.10        0.01     0.00   0.936
  5350                      25.75       0.00       0.00       1.68       6.44      17.66      24.10        0.01     0.00   0.936
  6088                      25.75       0.00       0.00       1.68       6.44      17.66      24.10        0.01     0.00   0.936
  7275                      25.75       0.00       0.00       1.68       6.44      17.66      24.10        0.01     0.00   0.936
  9955                      25.75       0.00       0.00       1.68       6.44      17.66      24.10        0.01     0.00   0.936
  9956                      25.75       0.00       0.00       1.68       6.44      17.66      24.10        0.01     0.00   0.936
  
  
  ****************************
  Subcatchment Washoff Summary
  ****************************
  
  ----------------------------------
                                 COD
  Subcatchment                    kg
  ----------------------------------
  2707                         6.325
  2708                         6.325
  2709                         6.325
  2710                         6.325
  2712                         6.325
  2713                         6.325
  2714                         6.325
  2715                         6.325
  2716                         6.325
  2717                         6.325
  2718                         6.325
  2719                         6.325
  2721                         6.325
  2722                         6.325
  2723                         6.325
  2724                         6.325
  2725                         6.325
  2726                         6.325
  2727                         6.325
  2728                         6.325
  2729                         6.325
  2730                         6.325
  2731                         6.325
  2732                         6.325
  2733                         6.325
  2734                         6.325
  2735                         6.325
  2736                         6.325
  2737                         6.325
  2738                         6.325
  2739                         6.325
  2740                         6.325
  2741                         6.325
  2742                         6.325
  2743                         6.325
  2744                         6.325
  2745                         6.325
  2746                         6.325
  2747                         6.325
  2748                         6.325
  2749                         6.325
  2750                         6.325
  2751                         6.325
  2752                         6.325
  2753                         6.325
  2754                         6.325
  2755                         6.325
  2756                         6.325
  2964                         6.325
  2969                         6.325
  2970                         6.325
  2974                         6.325
  2975                         6.325
  2976                         6.325
  2977                         6.325
  2978                         6.325
  2979                         6.325
  2980                         6.325
  2981                         6.325
  2982                         6.325
  2984                         6.325
  2985                         6.325
  3925                         6.325
  3926                         6.325
  3927                         6.325
  3928                         6.325
  3929                         6.325
  3930                         6.325
  3931                         6.325
  3932                         6.325
  3933                         6.325
  3934                         6.325
  3935                         6.325
  3936                         6.325
  3937                         6.325
  3938                         6.325
  3939                         6.325
  3940                         6.325
  3941                         6.325
  3942                         6.325
  3943                         6.325
  3944                         6.325
  3945                         6.325
  3946                         6.325
  3947                         6.325
  3948                         6.325
  3949                         6.325
  3950                         6.325
  3951                         6.325
  3952                         6.325
  3953                         6.325
  3954                         6.325
  3955                         6.325
  3956                         6.325
  4032                         6.325
  4033                         6.325
  4041                         6.325
  4051                         6.325
  4055                         6.325
  4056                         6.325
  4058                         6.325
  4385                         6.325
  4386                         6.325
  4387                         6.325
  4388                         6.325
  4389                         6.325
  4390                         6.325
  4391                         6.325
  4392                         6.325
  4393                         6.325
  4394                         6.325
  4395                         6.325
  4396                         6.325
  4397                         6.325
  4398                         6.325
  4429                         6.325
  4430                         6.325
  4431                         6.325
  4432                         6.325
  4433                         6.325
  4434                         6.325
  4435                         6.325
  4436                         6.325
  4437                         6.325
  4438                         6.325
  4439                         6.325
  4440                         6.325
  4441                         6.325
  4442                         6.325
  4443                         6.325
  4444                         6.325
  4445                         6.325
  4446                         6.325
  4447                         6.325
  4448                         6.325
  4449                         6.325
  4450                         6.325
  4451                         6.325
  4452                         6.325
  4453                         6.325
  4454                         6.325
  4462                         6.325
  4463                         6.325
  4563                         6.325
  4564                         6.325
  4565                         6.325
  4566                         6.325
  4567                         6.325
  4568                         6.325
  4569                         6.325
  4570                         6.325
  4571                         6.325
  4572                         6.325
  4573                         6.325
  4574                         6.325
  4575                         6.325
  4576                         6.325
  4577                         6.325
  4578                         6.325
  4579                         6.325
  4580                         6.325
  4581                         6.325
  4624                         6.325
  4625                         6.325
  4644                         6.325
  4645                         6.325
  4646                         6.325
  4679                         6.325
  4680                         6.325
  4681                         6.325
  4682                         6.325
  4683                         6.325
  4711                         6.325
  4712                         6.325
  4713                         6.325
  4714                         6.325
  4715                         6.325
  4716                         6.325
  4717                         6.325
  4718                         6.325
  4722                         6.325
  4760                         6.325
  4761                         6.325
  4765                         6.325
  4766                         6.325
  4767                         6.325
  4768                         6.325
  4769                         6.325
  4855                         6.325
  4856                         6.325
  5284                         6.325
  5285                         6.325
  5286                         6.325
  5287                         6.325
  5288                         6.325
  5289                         6.325
  5290                         6.325
  5291                         6.325
  5292                         6.325
  5293                         6.325
  5294                         6.325
  5295                         6.325
  5296                         6.325
  5297                         6.325
  5298                         6.325
  5299                         6.325
  5300                         6.325
  5301                         6.325
  5302                         6.325
  5303                         6.325
  5304                         6.325
  5305                         6.325
  5306                         6.325
  5307                         6.325
  5308                         6.325
  5309                         6.325
  5310                         6.325
  5311                         6.325
  5312                         6.325
  5313                         6.325
  5314                         6.325
  5315                         6.325
  5316                         6.325
  5317                         6.325
  5318                         6.325
  5319                         6.325
  5320                         6.325
  5321                         6.325
  5322                         6.325
  5323                         6.325
  5324                         6.325
  5325                         6.325
  5326                         6.325
  5327                         6.325
  5328                         6.325
  5329                         6.325
  5330                         6.325
  5333                         6.325
  5334                         6.325
  6040                         6.325
  6041                         6.325
  6162                         6.325
  7207                         6.325
  7208                         6.325
  7213                         6.325
  7214                         6.325
  7219                         6.325
  7220                         6.325
  7221                         6.325
  7225                         6.325
  7229                         6.325
  7231                         6.325
  7268                         6.325
  7269                         6.325
  7271                         6.325
  7272                         6.325
  7273                         6.325
  7433                         6.325
  7434                         6.325
  7544                         6.325
  7545                         6.325
  8737                         6.325
  8818                         6.325
  9942                         6.325
  9957                         6.325
  4399                         1.902
  4400                         1.902
  4401                         1.902
  4402                         1.902
  4403                         1.902
  4404                         1.902
  4405                         1.902
  4406                         1.902
  4407                         1.902
  4408                         1.902
  4409                         1.902
  4410                         1.902
  4411                         1.902
  4412                         1.902
  4423                         1.902
  4424                         1.902
  4425                         1.902
  4426                         1.902
  4427                         1.902
  4428                         1.902
  4455                         1.902
  4456                         1.902
  4457                         1.902
  4458                         1.902
  4459                         1.902
  4460                         1.902
  4461                         1.902
  4464                         1.902
  4465                         1.902
  4466                         1.902
  4467                         1.902
  4468                         1.902
  4469                         1.902
  4470                         1.902
  4471                         1.902
  4472                         1.902
  4473                         1.902
  4474                         1.902
  4628                         1.902
  4631                         1.902
  4632                         1.902
  4633                         1.902
  4634                         1.902
  4637                         1.902
  4686                         1.902
  4687                         1.902
  4688                         1.902
  5032                         1.902
  5331                         1.902
  5332                         1.902
  5335                         1.902
  5336                         1.902
  5337                         1.902
  5338                         1.902
  5339                         1.902
  5340                         1.902
  5341                         1.902
  5342                         1.902
  5343                         1.902
  5344                         1.902
  5345                         1.902
  5346                         1.902
  5347                         1.902
  5348                         1.902
  5349                         1.902
  5350                         1.902
  6088                         1.902
  7275                         1.902
  9955                         1.902
  9956                         1.902
  ----------------------------------
  System                    1809.249
  
  
  ******************
  Node Depth Summary
  ******************
  
  ---------------------------------------------------------------------------------
                                 Average  Maximum  Maximum  Time of Max    Reported
                                   Depth    Depth      HGL   Occurrence   Max Depth
  Node                 Type       Meters   Meters   Meters  days hr:min      Meters
  ---------------------------------------------------------------------------------
  Node_02706           JUNCTION     1.76     2.54    99.38     0  03:15        0.00
  Node_02707           JUNCTION     0.23     0.46    99.90     0  03:18        0.00
  Node_02708           JUNCTION     0.36     0.39   100.15     0  03:00        0.00
  Node_02709           JUNCTION     0.42     0.44   100.07     0  03:00        0.00
  Node_02711           JUNCTION     0.06     0.13   100.04     0  03:00        0.00
  Node_02712           JUNCTION     0.06     0.14   100.04     0  03:00        0.00
  Node_02713           JUNCTION     0.10     0.18   100.03     0  03:00        0.00
  Node_02714           JUNCTION     0.02     0.03   100.43     0  03:00        0.00
  Node_02715           JUNCTION     0.07     0.15    99.96     0  03:00        0.00
  Node_02716           JUNCTION     0.07     0.20    99.92     0  03:18        0.00
  Node_02717           JUNCTION     0.10     0.28    99.91     0  03:18        0.00
  Node_02718           JUNCTION     0.09     0.30    99.90     0  03:18        0.00
  Node_02720           JUNCTION     0.09     0.34    99.90     0  03:18        0.00
  Node_02721           JUNCTION     0.37     0.65    99.90     0  03:18        0.00
  Node_02722           JUNCTION     0.13     0.16   101.96     0  03:00        0.00
  Node_02723           JUNCTION     0.29     0.60    99.90     0  03:17        0.00
  Node_02724           JUNCTION     0.12     0.47    99.89     0  03:17        0.00
  Node_02725           JUNCTION     0.13     0.52    99.89     0  03:17        0.00
  Node_02726           JUNCTION     0.18     0.62    99.88     0  03:16        0.00
  Node_02727           JUNCTION     0.25     0.75    99.88     0  03:17        0.00
  Node_02728           JUNCTION     0.05     0.07   100.15     0  03:00        0.00
  Node_02729           JUNCTION     0.28     0.82    99.88     0  03:17        0.00
  Node_02730           JUNCTION     0.28     0.85    99.87     0  03:16        0.00
  Node_02731           JUNCTION     0.69     1.27    99.86     0  03:16        0.00
  Node_02732           JUNCTION     0.25     0.84    99.86     0  03:16        0.00
  Node_02733           JUNCTION     0.24     0.84    99.85     0  03:16        0.00
  Node_02734           JUNCTION     0.52     1.16    99.87     0  03:41        0.00
  Node_02735           JUNCTION     0.42     1.04    99.85     0  03:17        0.00
  Node_02736           JUNCTION     0.60     1.23    99.84     0  03:15        0.00
  Node_02737           JUNCTION     0.58     1.21    99.82     0  03:15        0.00
  Node_02738           JUNCTION     0.41     1.03    99.80     0  03:16        0.00
  Node_02739           JUNCTION     0.28     0.91    99.78     0  03:16        0.00
  Node_02740           JUNCTION     0.28     0.93    99.77     0  03:15        0.00
  Node_02741           JUNCTION     0.09     0.48    99.77     0  03:16        0.00
  Node_02742           JUNCTION     0.29     0.95    99.75     0  03:16        0.00
  Node_02743           JUNCTION     0.70     1.34    99.71     0  03:16        0.00
  Node_02744           JUNCTION     0.08     0.37    99.72     0  03:15        0.00
  Node_02745           JUNCTION     0.43     1.07    99.69     0  03:15        0.00
  Node_02746           JUNCTION     0.32     0.96    99.65     0  03:15        0.00
  Node_02747           JUNCTION     0.05     0.08   100.43     0  03:00        0.00
  Node_02748           JUNCTION     0.03     0.05   100.50     0  03:00        0.00
  Node_02749           JUNCTION     0.33     0.96    99.60     0  03:15        0.00
  Node_02750           JUNCTION     0.33     0.95    99.56     0  03:15        0.00
  Node_02751           JUNCTION     0.30     0.92    99.51     0  03:15        0.00
  Node_02752           JUNCTION     0.29     0.93    99.47     0  03:16        0.00
  Node_02753           JUNCTION     0.31     0.95    99.42     0  03:15        0.00
  Node_02754           JUNCTION     0.28     1.06    99.38     0  03:15        0.00
  Node_02755           JUNCTION     1.20     1.99    99.38     0  03:15        0.00
  Node_02963           JUNCTION     0.06     0.10   100.01     0  03:00        0.00
  Node_02968           JUNCTION     0.06     0.09   100.21     0  03:00        0.00
  Node_02969           JUNCTION     0.07     0.10    99.98     0  00:00        0.00
  Node_02973           JUNCTION     0.75     1.49    99.38     0  03:15        0.00
  Node_02974           JUNCTION     0.63     1.56    98.69     0  03:35        0.00
  Node_02975           JUNCTION     0.64     1.58    98.72     0  03:35        0.00
  Node_02976           JUNCTION     0.71     1.76    98.95     0  03:34        0.00
  Node_02977           JUNCTION     0.77     2.12    99.45     0  03:15        0.00
  Node_02978           JUNCTION     0.74     2.18    99.71     0  03:15        0.00
  Node_02979           JUNCTION     0.55     1.43    98.54     0  03:35        0.00
  Node_02980           JUNCTION     0.45     1.27    98.36     0  03:35        0.00
  Node_02981           JUNCTION     0.39     1.22    98.17     0  03:36        0.00
  Node_02983           JUNCTION     0.04     0.05   100.17     0  03:00        0.00
  Node_02984           JUNCTION     1.10     2.38    99.36     0  03:15        0.00
  Node_03924           JUNCTION     0.02     0.03   100.86     0  02:39        0.00
  Node_03925           JUNCTION     0.26     0.49   100.86     0  03:15        0.00
  Node_03926           JUNCTION     0.01     0.02   101.49     0  03:00        0.00
  Node_03927           JUNCTION     0.23     0.48   100.86     0  03:15        0.00
  Node_03928           JUNCTION     0.25     0.51   100.86     0  03:15        0.00
  Node_03929           JUNCTION     0.25     0.55   100.86     0  03:15        0.00
  Node_03930           JUNCTION     0.27     0.61   100.86     0  03:15        0.00
  Node_03931           JUNCTION     0.26     0.61   100.86     0  03:14        0.00
  Node_03932           JUNCTION     0.29     0.68   100.84     0  03:15        0.00
  Node_03933           JUNCTION     0.28     0.71   100.83     0  03:15        0.00
  Node_03934           JUNCTION     0.05     0.08   100.94     0  03:00        0.00
  Node_03935           JUNCTION     0.33     0.84   100.82     0  03:14        0.00
  Node_03936           JUNCTION     0.35     0.87   100.80     0  03:15        0.00
  Node_03937           JUNCTION     1.21     1.22   101.38     0  03:00        0.00
  Node_03938           JUNCTION     1.06     3.14   102.34     0  02:23        0.00
  Node_03939           JUNCTION     1.15     3.28   102.32     0  02:23        0.00
  Node_03940           JUNCTION     1.21     3.37   102.30     0  02:23        0.00
  Node_03941           JUNCTION     1.28     3.46   102.27     0  02:23        0.00
  Node_03942           JUNCTION     1.31     3.48   102.23     0  02:23        0.00
  Node_03943           JUNCTION     1.39     3.58   102.19     0  02:23        0.00
  Node_03944           JUNCTION     1.48     3.69   102.17     0  02:23        0.00
  Node_03945           JUNCTION     1.53     3.76   102.18     0  02:23        0.00
  Node_03946           JUNCTION     1.59     3.82   102.18     0  02:26        0.00
  Node_03947           JUNCTION     1.77     4.03   101.92     0  02:30        0.00
  Node_03948           JUNCTION     1.68     3.89   101.74     0  02:26        0.00
  Node_03949           JUNCTION     1.75     3.91   101.61     0  02:26        0.00
  Node_03950           JUNCTION     1.59     3.69   101.46     0  02:26        0.00
  Node_03951           JUNCTION     1.52     3.52   101.21     0  02:26        0.00
  Node_03952           JUNCTION     1.46     3.32   100.91     0  02:26        0.00
  Node_03953           JUNCTION     1.31     3.00   100.57     0  02:26        0.00
  Node_03954           JUNCTION     2.12     3.60   100.18     0  02:26        0.00
  Node_03955           JUNCTION     1.00     2.26    99.75     0  02:26        0.00
  Node_04031           JUNCTION     0.23     0.84   102.07     0  02:26        0.00
  Node_04032           JUNCTION     1.48     3.72   102.07     0  02:26        0.00
  Node_04040           JUNCTION     0.54     1.70   102.25     0  02:23        0.00
  Node_04050           JUNCTION     0.25     0.26   101.23     0  03:00        0.00
  Node_04054           JUNCTION     0.02     0.04   101.18     0  03:00        0.00
  Node_04055           JUNCTION     0.14     0.17   100.98     0  03:00        0.00
  Node_04057           JUNCTION     0.08     0.47   100.78     0  03:14        0.00
  Node_04384           JUNCTION     1.06     2.65   100.23     0  03:15        0.00
  Node_04385           JUNCTION     0.81     2.48   100.40     0  03:15        0.00
  Node_04386           JUNCTION     0.82     2.54   100.48     0  03:15        0.00
  Node_04387           JUNCTION     0.83     2.61   100.57     0  03:13        0.00
  Node_04388           JUNCTION     0.85     2.69   100.70     0  03:15        0.00
  Node_04389           JUNCTION     0.14     0.36   100.73     0  03:15        0.00
  Node_04390           JUNCTION     0.86     2.71   100.73     0  03:15        0.00
  Node_04391           JUNCTION     0.88     2.82   100.88     0  03:14        0.00
  Node_04392           JUNCTION     1.00     2.95   100.91     0  03:14        0.00
  Node_04393           JUNCTION     0.90     2.89   101.00     0  03:14        0.00
  Node_04394           JUNCTION     0.25     1.36   101.00     0  03:13        0.00
  Node_04395           JUNCTION     0.91     2.96   101.11     0  03:15        0.00
  Node_04396           JUNCTION     0.92     3.01   101.22     0  03:14        0.00
  Node_04397           JUNCTION     0.18     1.32   101.22     0  03:14        0.00
  Node_04428           JUNCTION     0.95     3.09   101.31     0  03:13        0.00
  Node_04429           JUNCTION     0.96     3.13   101.38     0  03:12        0.00
  Node_04430           JUNCTION     0.96     3.16   101.44     0  03:13        0.00
  Node_04431           JUNCTION     0.80     2.91   101.48     0  03:13        0.00
  Node_04432           JUNCTION     0.73     2.81   101.48     0  03:12        0.00
  Node_04433           JUNCTION     0.58     2.60   101.48     0  03:13        0.00
  Node_04434           JUNCTION     0.87     2.90   101.49     0  03:13        0.00
  Node_04435           JUNCTION     0.74     2.74   101.51     0  03:12        0.00
  Node_04436           JUNCTION     1.15     3.12   101.52     0  02:57        0.00
  Node_04437           JUNCTION     1.30     3.24   101.53     0  02:59        0.00
  Node_04438           JUNCTION     1.61     3.54   101.55     0  03:12        0.00
  Node_04439           JUNCTION     0.68     2.60   101.58     0  03:10        0.00
  Node_04440           JUNCTION     0.69     2.59   101.60     0  03:05        0.00
  Node_04441           JUNCTION     0.46     2.27   101.60     0  03:14        0.00
  Node_04442           JUNCTION     0.77     2.66   101.63     0  02:51        0.00
  Node_04443           JUNCTION     0.64     2.51   101.65     0  03:07        0.00
  Node_04444           JUNCTION     0.65     2.50   101.67     0  02:51        0.00
  Node_04445           JUNCTION     0.60     2.44   101.70     0  02:52        0.00
  Node_04446           JUNCTION     0.59     2.39   101.73     0  02:52        0.00
  Node_04447           JUNCTION     0.55     2.31   101.76     0  02:52        0.00
  Node_04448           JUNCTION     0.58     2.32   101.78     0  02:52        0.00
  Node_04449           JUNCTION     0.60     2.34   101.79     0  02:52        0.00
  Node_04450           JUNCTION     0.76     2.49   101.82     0  02:52        0.00
  Node_04451           JUNCTION     0.59     2.31   101.85     0  02:52        0.00
  Node_04452           JUNCTION     0.35     2.03   101.85     0  02:52        0.00
  Node_04453           JUNCTION     0.23     1.63   101.85     0  02:52        0.00
  Node_04461           JUNCTION     0.56     2.24   101.86     0  02:52        0.00
  Node_04462           JUNCTION     0.57     2.22   101.87     0  02:52        0.00
  Node_04562           JUNCTION     0.39     2.40   101.99     0  02:54        0.00
  Node_04563           JUNCTION     0.68     2.86   101.98     0  02:59        0.00
  Node_04564           JUNCTION     0.48     2.60   101.99     0  02:54        0.00
  Node_04565           JUNCTION     0.49     2.62   101.98     0  02:54        0.00
  Node_04566           JUNCTION     0.60     2.79   101.98     0  02:54        0.00
  Node_04567           JUNCTION     0.55     2.75   101.97     0  02:54        0.00
  Node_04568           JUNCTION     0.55     2.78   101.97     0  02:59        0.00
  Node_04569           JUNCTION     0.66     2.99   101.96     0  02:56        0.00
  Node_04570           JUNCTION     0.38     2.23   101.96     0  02:54        0.00
  Node_04571           JUNCTION     0.66     2.99   101.92     0  02:53        0.00
  Node_04572           JUNCTION     2.04     4.39   101.92     0  03:13        0.00
  Node_04573           JUNCTION     1.70     4.05   101.89     0  03:13        0.00
  Node_04574           JUNCTION     2.29     3.53   101.83     0  03:02        0.00
  Node_04575           JUNCTION     2.16     4.52   101.83     0  03:13        0.00
  Node_04576           JUNCTION     0.76     3.12   101.77     0  03:13        0.00
  Node_04577           JUNCTION     0.78     3.12   101.70     0  03:13        0.00
  Node_04578           JUNCTION     0.80     3.13   101.63     0  03:09        0.00
  Node_04579           JUNCTION     0.86     3.14   101.55     0  03:05        0.00
  Node_04580           JUNCTION     0.34     1.98   101.76     0  02:52        0.00
  Node_04623           JUNCTION     0.12     0.73   100.39     0  03:13        0.00
  Node_04624           JUNCTION     0.35     1.92   101.38     0  03:13        0.00
  Node_04643           JUNCTION     0.32     1.88   101.79     0  02:52        0.00
  Node_04644           JUNCTION     0.31     1.83   101.67     0  02:52        0.00
  Node_04645           JUNCTION     0.50     2.05   101.65     0  02:51        0.00
  Node_04678           JUNCTION     0.25     1.58   101.31     0  03:14        0.00
  Node_04679           JUNCTION     0.04     0.21   100.39     0  03:15        0.00
  Node_04680           JUNCTION     0.81     2.34   100.11     0  03:15        0.00
  Node_04681           JUNCTION     0.75     2.24    99.96     0  03:15        0.00
  Node_04682           JUNCTION     0.11     0.88   101.89     0  03:10        0.00
  Node_04710           JUNCTION     0.14     0.18   100.17     0  02:43        0.00
  Node_04711           JUNCTION     0.18     0.25   100.24     0  02:42        0.00
  Node_04712           JUNCTION     0.17     0.24   100.25     0  02:58        0.00
  Node_04713           JUNCTION     0.14     0.19   100.24     0  02:35        0.00
  Node_04714           JUNCTION     0.18     0.22   100.27     0  02:24        0.00
  Node_04715           JUNCTION     0.14     0.18   100.27     0  03:07        0.00
  Node_04716           JUNCTION     0.16     0.18   100.31     0  00:00        0.00
  Node_04717           JUNCTION     0.12     0.13   100.43     0  03:00        0.00
  Node_04721           JUNCTION     0.27     1.56   101.91     0  03:09        0.00
  Node_04759           JUNCTION     0.28     1.58   101.76     0  03:12        0.00
  Node_04760           JUNCTION     0.13     0.14    99.60     0  03:00        0.00
  Node_04764           JUNCTION     0.35     1.59   101.51     0  02:51        0.00
  Node_04765           JUNCTION     0.24     1.44   101.86     0  02:52        0.00
  Node_04766           JUNCTION     0.44     2.19   101.96     0  02:54        0.00
  Node_04767           JUNCTION     0.42     2.16   101.99     0  02:54        0.00
  Node_04768           JUNCTION     0.45     2.31   101.97     0  02:54        0.00
  Node_04854           JUNCTION     0.06     0.44   100.88     0  03:15        0.00
  Node_04855           JUNCTION     0.68     1.91   101.84     0  03:12        0.00
  Node_05283           JUNCTION     1.43     3.58   102.20     0  02:26        0.00
  Node_05284           JUNCTION     1.41     3.55   102.21     0  02:23        0.00
  Node_05285           JUNCTION     1.38     3.47   102.22     0  02:23        0.00
  Node_05286           JUNCTION     1.36     3.42   102.22     0  02:23        0.00
  Node_05287           JUNCTION     1.34     3.42   102.27     0  02:23        0.00
  Node_05288           JUNCTION     1.33     3.41   102.28     0  02:23        0.00
  Node_05289           JUNCTION     0.91     2.70   102.22     0  02:23        0.00
  Node_05290           JUNCTION     1.32     3.40   102.29     0  02:23        0.00
  Node_05291           JUNCTION     1.16     3.19   102.39     0  02:23        0.00
  Node_05292           JUNCTION     1.13     3.16   102.41     0  02:24        0.00
  Node_05293           JUNCTION     1.12     3.16   102.41     0  02:24        0.00
  Node_05294           JUNCTION     1.10     3.12   102.43     0  02:24        0.00
  Node_05295           JUNCTION     1.14     3.15   102.42     0  02:24        0.00
  Node_05296           JUNCTION     1.12     3.12   102.43     0  02:24        0.00
  Node_05297           JUNCTION     0.94     2.78   102.29     0  02:23        0.00
  Node_05298           JUNCTION     1.08     3.04   102.44     0  02:24        0.00
  Node_05299           JUNCTION     1.07     3.04   102.44     0  02:24        0.00
  Node_05300           JUNCTION     1.06     2.97   102.42     0  02:24        0.00
  Node_05301           JUNCTION     1.02     2.93   102.42     0  02:24        0.00
  Node_05302           JUNCTION     1.03     2.91   102.41     0  02:24        0.00
  Node_05303           JUNCTION     0.99     2.86   102.41     0  02:24        0.00
  Node_05304           JUNCTION     1.02     2.86   102.39     0  02:24        0.00
[...]
  Link_02098                  1.53      1.53      1.55      0.01         0.01
  Link_02099                  1.69      1.69      1.75      0.01         0.01
  Link_02100                  1.58      1.58      1.69      0.01         0.01
  Link_02101                  1.53      1.53      1.76      0.01         0.01
  Link_02102                  1.58      1.58      1.58      3.21         1.32
  Link_02103                  1.54      1.54      1.58      0.01         0.01
  Link_02104                  1.43      1.43      1.51      0.01         0.01
  Link_02105                  1.38      1.38      1.43      0.01         0.01
  Link_02106                  1.09      1.09      1.43      0.01         0.01
  Link_02107                  0.91      0.91      1.16      0.01         0.01
  Link_02108                  1.35      1.35      1.38      0.01         0.01
  Link_02109                  1.16      1.16      1.35      0.01         0.01
  Link_02112                  1.41      1.41      1.42      0.01         0.10
  Link_02139                  0.01      0.01      0.01      1.00         0.01
  Link_02383                  1.57      1.57      1.70      0.01         0.01
  Link_02384                  1.70      1.70      1.72      0.01         0.01
  Link_02385                  1.73      1.73      1.74      0.01         0.07
  Link_02386                  1.22      1.22      1.26      0.01         0.01
  Link_02387                  1.75      1.75      1.83      0.01         0.01
  Link_02388                  1.84      1.84      1.86      0.01         0.01
  Link_02389                  1.41      1.41      1.71      0.01         0.01
  Link_02390                  1.87      1.87      1.90      0.01         0.01
  Link_02391                  1.90      1.90      2.08      0.01         0.01
  Link_02392                  1.40      1.40      1.51      0.01         0.01
  Link_02393                  2.09      2.09      2.11      0.01         0.01
  Link_05461                  0.35      0.35      0.42      0.01         0.01
  Link_05462                  0.84      0.84      0.90      0.01         0.01
  Link_05463                  1.01      1.01      1.02      0.43         0.17
  Link_05464                  1.24      1.24      1.25      0.01         0.22
  Link_05496                  2.41      2.58      2.41      2.89         2.41
  Link_05663                  0.88      0.88      1.21      0.01         0.01
  Link_05664                  3.65      3.65      3.67      0.01         0.01
  Link_05665                  3.75      3.87      3.75      4.34         3.75
  Link_05677                  3.66      3.67      3.66      3.95         3.66
  Link_05678                  1.66      1.66      1.68      0.01         0.01
  Link_05720                  2.10      2.16      2.10      2.82         2.10
  Link_05721                  2.37      2.41      2.37      2.76         2.37
  Link_05722                  1.05      1.05      1.08      0.01         0.01
  Link_05726                  2.16      2.16      2.21      0.01         0.01
  Link_05727                  2.16      2.16      2.17      0.01         0.02
  Link_05728                  1.89      1.89      1.91      0.01         0.01
  Link_05729                  1.58      1.58      1.58      2.34         1.06
  Link_05742                  1.26      1.26      1.33      0.01         0.01
  Link_05743                  2.11      2.11      2.15      0.01         0.01
  Link_05744                  2.72      2.72      2.89      0.01         0.01
  Link_05752                  1.10      1.10      1.11      0.01         0.01
  Link_05812                  3.02      3.02      3.23      0.01         0.01
  Link_05813                  2.64      2.64      2.69      0.01         0.01
  Link_05814                  2.32      2.32      2.37      0.01         0.01
  Link_05815                  2.22      2.22      2.25      0.01         0.01
  Link_07220                  0.34      0.34      0.58      0.01         0.01
  Link_07221                  0.58      0.58      0.59      0.01         0.47
  Link_07222                  0.58      0.58      0.64      0.01         0.01
  Link_07230                  0.64      0.64      0.75      0.01         0.01
  Link_07231                  0.75      0.75      0.75      0.84         0.50
  Link_07233                  0.93      1.11      0.93      1.38         0.93
  Link_07234                  1.00      1.04      1.00      2.78         1.00
  Link_07235                  1.15      1.15      1.17      0.08         0.33
  Link_07296                  0.01      0.01      0.24      0.01         0.01
  Link_07297                  0.24      0.24      0.34      0.01         0.01
  Link_07464                  2.43      2.43      2.45      0.01         0.01
  Link_07578                  1.25      1.25      1.27      0.01         0.01
  Link_07579                  1.48      1.48      1.54      0.01         0.01
  Link_07580                  1.43      1.43      1.48      0.01         0.01
  Link_07687                  2.63      2.63      2.69      0.01         0.01
  Link_08891                  0.67      0.67      1.21      0.01         0.01
  Link_08912                  0.01      0.01      0.90      0.01         0.01
  Link1_to_ChengXi            0.88      1.17      0.93      0.62         0.07
  Link2_to_ChengXi            0.51      4.17      0.51      4.32         0.51
  Link3_to_ChengXi            0.01      1.07      0.01      1.16         0.01
  
  
  ***************
  Pumping Summary
  ***************
  
  ---------------------------------------------------------------------------------------------------------
                                                  Min       Avg       Max     Total     Power    % Time Off
                        Percent   Number of      Flow      Flow      Flow    Volume     Usage    Pump Curve
  Pump                 Utilized   Start-Ups       CMS       CMS       CMS  10^6 ltr     Kw-hr    Low   High
  ---------------------------------------------------------------------------------------------------------
  Pump_ChengXi1           58.70         593      0.00      0.17      0.17     2.117     38.94    0.0    0.0
  Pump_ChengXi2           58.70         594      0.00      0.17      0.17     2.117     38.94    0.0    0.0
  Pump_ChengXi3           58.70         594      0.00      0.17      0.17     2.117     38.94    0.0    0.0
  Pump_ChengXi4           58.70         594      0.00      0.17      0.17     2.117     38.94    0.0    0.0
  Pump_LaoDongLu1        100.00           0      0.00      0.02      0.03     0.421      8.07    0.0    0.0
  Pump_LaoDongLu2        100.00           1      0.00      0.02      0.03     0.421      8.07    0.0    0.0
  Pump_LaoDongLu3        100.00           1      0.00      0.02      0.03     0.421      8.07    0.0    0.0
  outfallpump             94.91         125      0.00      0.34      0.45     7.008    138.75    0.0    0.0
  
  
  ***************************
  Link Pollutant Load Summary
  ***************************
  
  ----------------------------------
                                 COD
  Link                            kg
  ----------------------------------
  Link_01146                  25.904
  Link_01147                  32.603
  Link_01148                  39.153
  Link_01149                  45.514
  Link_01150                  51.896
  Link_01151                  54.957
  Link_01152                  42.688
  Link_01274                   8.092
  Link_01275                  14.431
  Link_01276                  32.417
  Link_01292                  11.635
  Link_01294                  45.244
  Link_01295                  51.618
  Link_01296                  57.970
  Link_01297                  76.042
  Link_01298                   8.095
  Link_01299                  90.577
  Link_01300                  97.002
  Link_01301                 103.445
  Link_01302                   8.091
  Link_01312                  11.647
  Link_01313                 362.679
  Link_01314                 369.579
  Link_01315                 376.233
  Link_01316                 383.003
  Link_01317                 389.801
  Link_01318                 396.972
  Link_01319                 404.252
  Link_01320                 444.126
  Link_01323                 252.837
  Link_01324                  10.081
  Link_01325                 269.523
  Link_01326                 276.356
  Link_01327                 251.887
  Link_01328                  10.352
  Link_01329                 269.278
  Link_01330                 276.368
  Link_01331                 283.203
  Link_01332                 204.771
  Link_01333                  10.324
  Link_01334                 221.685
  Link_01335                  11.296
  Link_01336                 239.224
  Link_01337                 177.304
  Link_01338                  10.810
  Link_01339                 160.052
  Link_01340                  10.216
  Link_01341                 150.010
  Link_01342                  10.170
  Link_01343                 148.621
  Link_01344                  19.699
  Link_01345                 142.713
  Link_01346                 143.915
  Link_01347                  11.496
  Link_01348                 138.535
  Link_01349                  19.074
  Link_01350                 140.990
  Link_01351                  10.598
  Link_01352                 144.318
  Link_01556                  10.474
  Link_01557                  20.002
  Link_01558                1731.493
  Link_01559                  31.330
  Link_01560                1724.460
  Link_01561                1771.038
  Link_01562                1779.248
  Link_01563                1787.208
  Link_01564                   7.023
  Link_01565                 120.251
  Link_01566                   9.184
  Link_01567                  10.485
  Link_01568                 123.806
  Link_01569                  12.786
  Link_01570                 128.611
  Link_01571                 120.585
  Link_01572                 111.667
  Link_01573                  93.597
  Link_01574                  85.707
  Link_01575                  10.915
  Link_01576                  67.619
  Link_01577                  49.276
  Link_01578                  42.387
  Link_01579                  10.443
  Link_01580                   5.460
  Link_01581                   7.404
  Link_01582                   5.452
  Link_01731                   9.882
  Link_01732                  16.275
  Link_01733                  22.698
  Link_01734                   9.923
  Link_01735                   8.094
  Link_01751                  53.637
  Link_01752                  60.097
  Link_01753                  76.555
  Link_01754                  82.980
  Link_01755                  89.446
  Link_01756                   8.112
  Link_01757                 104.000
  Link_01758                   9.889
  Link_01759                   9.938
  Link_01760                 126.927
  Link_01761                 133.461
  Link_01762                 140.206
  Link_01763                   8.096
  Link_01764                 154.853
  Link_01765                 168.204
  Link_01766                 174.917
  Link_01767                 253.274
  Link_01768                 260.342
  Link_01769                 267.538
  Link_01770                 276.494
  Link_01771                 283.401
  Link_01772                  22.165
  Link_01773                 312.869
  Link_01774                  29.462
  Link_01775                  71.442
  Link_01776                  65.108
  Link_01777                  58.722
  Link_01778                  52.397
  Link_01779                  46.040
  Link_01780                  39.665
  Link_01781                  33.203
  Link_01782                 368.119
  Link_01783                   9.937
  Link_01784                 385.068
  Link_01785                 392.516
  Link_01786                  60.145
  Link_01787                  31.274
  Link_01788                 491.276
  Link_01789                 498.934
  Link_01790                  15.188
  Link_01791                  13.496
  Link_01792                  11.671
  Link_01793                 543.422
  Link_01794                 551.002
  Link_01795                 558.395
  Link_01796                 565.729
  Link_01797                 572.750
  Link_01798                1093.932
  Link_01799                1084.122
  Link_01800                1102.388
  Link_01801                 603.279
  Link_01802                1040.182
  Link_01803                1074.685
  Link_01804                 928.989
  Link_01805                 920.418
  Link_01806                 911.936
  Link_01807                 902.513
  Link_01808                  13.414
  Link_01809                 881.026
  Link_01810                 864.700
  Link_01811                   6.311
  Link_01812                  51.028
  Link_01813                  42.020
  Link_01814                 831.715
  Link_01815                 822.457
  Link_01816                 805.328
  Link_01817                   8.061
  Link_01818                 772.505
  Link_01819                 752.521
  Link_01820                  11.597
  Link_01821                  24.051
  Link_01822                   5.455
  Link_01823                 168.439
  Link_01824                 166.132
  Link_01825                  47.890
  Link_01826                  49.933
  Link_01827                   1.900
  Link_01828                  53.920
  Link_01829                   5.449
  Link_01830                  61.528
  Link_01831                   1.899
  Link_01832                  65.535
  Link_01833                  67.592
  Link_01834                  71.718
  Link_01835                   1.899
  Link_01836                  37.319
  Link_01837                  19.769
  Link_01838                  25.892
  Link_01839                  35.176
  Link_01840                  33.211
  Link_01841                  31.273
  Link_01842                  25.664
  Link_01843                  21.710
  Link_01844                  19.761
  Link_02074                   9.822
  Link_02075                 163.127
  Link_02076                 181.622
  Link_02077                  16.006
  Link_02078                 204.567
  Link_02079                  11.620
  Link_02080                 222.936
  Link_02081                 229.610
  Link_02082                 236.351
  Link_02083                  11.747
  Link_02084                  10.137
  Link_02085                 492.269
  Link_02086                 477.129
  Link_02087                 470.069
  Link_02088                 461.955
  Link_02089                 454.453
  Link_02090                 448.915
  Link_02091                 441.691
  Link_02092                 434.119
  Link_02093                   9.845
  Link_02094                 408.759
  Link_02095                 400.993
  Link_02096                 367.659
  Link_02097                  16.864
  Link_02098                  23.510
  Link_02099                 360.058
  Link_02100                 352.712
  Link_02101                  15.122
  Link_02102                 322.334
  Link_02103                 300.284
  Link_02104                  19.890
  Link_02105                 234.385
  Link_02106                  13.657
  Link_02107                   6.403
  Link_02108                 221.015
  Link_02109                 213.253
  Link_02110                 244.680
  Link_02111                 161.928
  Link_02112                  15.158
  Link_02113                 119.705
  Link_02114                  32.252
  Link_02115                  30.209
  Link_02116                  28.246
  Link_02117                  26.321
  Link_02118                  24.376
  Link_02123                   5.446
  Link_02124                   7.375
  Link_02125                   9.310
  Link_02126                  11.224
  Link_02127                  22.441
  Link_02128                  20.496
  Link_02129                  18.580
  Link_02130                  16.659
  Link_02131                  14.703
  Link_02132                  12.740
  Link_02133                  10.778
  Link_02134                 121.778
  Link_02135                 123.799
  Link_02136                 131.308
  Link_02137                   5.445
  Link_02138                 149.023
  Link_02139                 146.963
  Link_02140                 144.841
  Link_02141                 142.831
  Link_02142                 140.752
  Link_02143                 133.315
  Link_02383                   6.547
  Link_02384                  13.460
  Link_02385                  20.674
  Link_02386                  24.125
  Link_02387                  50.801
  Link_02388                  57.173
  Link_02389                  24.116
  Link_02390                  63.554
  Link_02391                  93.548
  Link_02392                  31.201
  Link_02393                 130.606
  Link_05459                  47.182
  Link_05460                 120.397
  Link_05461                 161.415
  Link_05462                 349.425
  Link_05463                 535.592
  Link_05464                  27.628
  Link_05496                1715.498
  Link_05662                  38.800
  Link_05663                   8.093
  Link_05664                  49.286
  Link_05665                 451.310
  Link_05677                 339.086
  Link_05678                  17.112
  Link_05720                1031.864
  Link_05721                 856.197
  Link_05722                  15.166
  Link_05723                  85.360
  Link_05725                  13.180
  Link_05726                 500.326
  Link_05727                   8.091
  Link_05728                 416.696
  Link_05729                 329.810
  Link_05730                 242.526
  Link_05731                 163.896
  Link_05732                 159.939
  Link_05742                  24.253
  Link_05743                 134.692
  Link_05744                 243.463
  Link_05752                  37.686
  Link_05753                   3.681
  Link_05754                  23.678
  Link_05791                   5.445
  Link_05812                 245.717
  Link_05813                 141.681
  Link_05814                 116.035
  Link_05815                 126.233
  Link_05816                  16.732
  Link_05817                  24.234
  Link_05818                  10.790
  Link_05983                  25.127
  Link_05984                  18.791
  Link_06039                   1.883
  Link_07220                  84.255
  Link_07221                  90.072
  Link_07222                 116.379
  Link_07230                 122.971
  Link_07231                 129.514
  Link_07233                 262.094
  Link_07234                 268.455
  Link_07235                 125.977
  Link_07270                  24.188
  Link_07271                  30.563
  Link_07274                  15.199
  Link_07277                  36.904
  Link_07278                  43.242
  Link_07295                  49.629
  Link_07296                  56.074
  Link_07297                  77.735
  Link_07303                   9.870
  Link_07306                   9.868
  Link_07321                  10.776
  Link_07464                  20.479
  Link_07578                  24.212
  Link_07579                 291.781
  Link_07580                 260.778
  Link_07687                  18.980
  Link_07865                  10.769
  Link_08891                  11.750
  Link_08912                  32.981
  Link1_to_ChengXi          1794.850
  Link2_to_ChengXi           462.419
  Link3_to_ChengXi           275.723
  Link_to_LaoDongLu          246.742
  Pump_ChengXi1              656.712
  Pump_ChengXi2              656.712
  Pump_ChengXi3              656.712
  Pump_ChengXi4              656.712
  Pump_LaoDongLu1             68.517
  Pump_LaoDongLu2             68.517
  Pump_LaoDongLu3             68.517
  outfallpump               2073.237
  

  Analysis begun on:  Sat Sep  4 16:45:13 2021
  Analysis ended on:  Sat Sep  4 16:45:15 2021
  Total elapsed time: 00:00:02