
  EPA STORM WATER MANAGEMENT MODEL - VERSION 5.1 (Build 5.3.0.dev0)
  --------------------------------------------------------------

  WARNING 04: minimum elevation drop used for Conduit Link_01776
  WARNING 04: minimum elevation drop used for Conduit Link_01779
  WARNING 04: minimum elevation drop used for Conduit Link_07234
  WARNING 02: maximum depth increased for Node Node_06087
  
  *********************************************************
  NOTE: The summary statistics displayed in this report are
  based on results found at every computational time step,  
  not just on results from each reporting time step.
  *********************************************************
  
  ****************
  Analysis Options
  ****************
  Flow Units ............... CMS
  Process Models:
    Rainfall/Runoff ........ YES
    RDII ................... NO
    Snowmelt ............... NO
    Groundwater ............ NO
    Flow Routing ........... YES
    Ponding Allowed ........ YES
    Water Quality .......... YES
  Infiltration Method ...... HORTON
  Flow Routing Method ...... DYNWAVE
  Surcharge Method ......... EXTRAN
  Starting Date ............ 01/02/2011 00:00:00
  Ending Date .............. 01/02/2011 06:00:00
  Antecedent Dry Days ...... 0.0
  Report Time Step ......... 00:15:00
  Wet Time Step ............ 00:05:00
  Dry Time Step ............ 01:00:00
  Routing Time Step ........ 60.00 sec
  Variable Time Step ....... YES
  Maximum Trials ........... 8
  Number of Threads ........ 4
  Head Tolerance ........... 0.001500 m
  
  
  **************************        Volume         Depth
  Runoff Quantity Continuity     hectare-m            mm
  **************************     ---------       -------
  Total Precipitation ......         1.645        57.500
  Evaporation Loss .........         0.000         0.000
  Infiltration Loss ........         0.050         1.751
  Surface Runoff ...........         1.596        55.819
  Final Storage ............         0.000         0.009
  Continuity Error (%) .....        -0.138
  
  
  **************************           COD
  Runoff Quality Continuity             kg
  **************************    ----------
  Initial Buildup ..........         0.000
  Surface Buildup ..........         0.000
  Wet Deposition ...........      4325.060
  Sweeping Removal .........         0.000
  Infiltration Loss ........       131.727
  BMP Removal ..............         0.000
  Surface Runoff ...........      4198.608
  Remaining Buildup ........         0.706
  Continuity Error (%) .....        -0.138
  
  
  **************************        Volume        Volume
  Flow Routing Continuity        hectare-m      10^6 ltr
  **************************     ---------     ---------
  Dry Weather Inflow .......         0.153         1.529
  Wet Weather Inflow .......         1.596        15.964
  Groundwater Inflow .......         0.000         0.000
  RDII Inflow ..............         0.000         0.000
  External Inflow ..........         0.000         0.000
  External Outflow .........         0.811         8.115
  Flooding Loss ............         1.093        10.928
  Evaporation Loss .........         0.000         0.000
  Exfiltration Loss ........         0.000         0.000
  Initial Stored Volume ....         0.077         0.773
  Final Stored Volume ......         0.148         1.483
  Continuity Error (%) .....       -12.367
  
  
  **************************           COD
  Quality Routing Continuity            kg
  **************************    ----------
  Dry Weather Inflow .......       845.606
  Wet Weather Inflow .......      4198.592
  Groundwater Inflow .......         0.000
  RDII Inflow ..............         0.000
  External Inflow ..........         0.000
  External Outflow .........      2339.879
  Flooding Loss ............      2861.450
  Exfiltration Loss ........         0.000
  Mass Reacted .............         0.000
  Initial Stored Mass ......       427.257
  Final Stored Mass ........       332.994
  Continuity Error (%) .....        -1.149
  
  
  *************************
  Highest Continuity Errors
  *************************
  Node Node_04713 (-79.24%)
  Node Node_07272 (-43.04%)
  Node Node_04714 (-27.69%)
  Node Node_04711 (-15.20%)
  Node Node_04715 (-15.08%)
  
  
  ***************************
  Time-Step Critical Elements
  ***************************
  Link Link_02129 (49.17%)
  Link Link_01778 (39.56%)
  Link Link_05464 (2.20%)
  Link Link_01780 (1.25%)
  Link Link_07234 (1.11%)
  
  
  ********************************
  Highest Flow Instability Indexes
  ********************************
  Link Link_01558 (79)
  Link Link_01778 (73)
  Link Link_01810 (67)
  Link Link_01787 (67)
  Link Link_01777 (66)
  
  
  *************************
  Routing Time Step Summary
  *************************
  Minimum Time Step           :     5.00 sec
  Average Time Step           :     5.00 sec
  Maximum Time Step           :     5.00 sec
  Percent in Steady State     :     0.00
  Average Iterations per Step :     7.13
  Percent Not Converging      :    72.31
  
  
  ***************************
  Subcatchment Runoff Summary
  ***************************
  
  ------------------------------------------------------------------------------------------------------------------------------
                            Total      Total      Total      Total     Imperv       Perv      Total       Total     Peak  Runoff
                           Precip      Runon       Evap      Infil     Runoff     Runoff     Runoff      Runoff   Runoff   Coeff
  Subcatchment                 mm         mm         mm         mm         mm         mm         mm    10^6 ltr      CMS
  ------------------------------------------------------------------------------------------------------------------------------
  2707                      57.50       0.00       0.00       1.76      14.38      41.44      55.82        0.06     0.01   0.971
  2708                      57.50       0.00       0.00       1.76      14.38      41.44      55.82        0.06     0.01   0.971
  2709                      57.50       0.00       0.00       1.76      14.38      41.44      55.82        0.06     0.01   0.971
  2710                      57.50       0.00       0.00       1.76      14.38      41.44      55.82        0.06     0.01   0.971
  2712                      57.50       0.00       0.00       1.76      14.38      41.44      55.82        0.06     0.01   0.971
  2713                      57.50       0.00       0.00       1.76      14.38      41.44      55.82        0.06     0.01   0.971
  2714                      57.50       0.00       0.00       1.76      14.38      41.44      55.82        0.06     0.01   0.971
  2715                      57.50       0.00       0.00       1.76      14.38      41.44      55.82        0.06     0.01   0.971
  2716                      57.50       0.00       0.00       1.76      14.38      41.44      55.82        0.06     0.01   0.971
  2717                      57.50       0.00       0.00       1.76      14.38      41.44      55.82        0.06     0.01   0.971
  2718                      57.50       0.00       0.00       1.76      14.38      41.44      55.82        0.06     0.01   0.971
  2719                      57.50       0.00       0.00       1.76      14.38      41.44      55.82        0.06     0.01   0.971
  2721                      57.50       0.00       0.00       1.76      14.38      41.44      55.82        0.06     0.01   0.971
  2722                      57.50       0.00       0.00       1.76      14.38      41.44      55.82        0.06     0.01   0.971
  2723                      57.50       0.00       0.00       1.76      14.38      41.44      55.82        0.06     0.01   0.971
  2724                      57.50       0.00       0.00       1.76      14.38      41.44      55.82        0.06     0.01   0.971
  2725                      57.50       0.00       0.00       1.76      14.38      41.44      55.82        0.06     0.01   0.971
  2726                      57.50       0.00       0.00       1.76      14.38      41.44      55.82        0.06     0.01   0.971
  2727                      57.50       0.00       0.00       1.76      14.38      41.44      55.82        0.06     0.01   0.971
  2728                      57.50       0.00       0.00       1.76      14.38      41.44      55.82        0.06     0.01   0.971
  2729                      57.50       0.00       0.00       1.76      14.38      41.44      55.82        0.06     0.01   0.971
  2730                      57.50       0.00       0.00       1.76      14.38      41.44      55.82        0.06     0.01   0.971
  2731                      57.50       0.00       0.00       1.76      14.38      41.44      55.82        0.06     0.01   0.971
  2732                      57.50       0.00       0.00       1.76      14.38      41.44      55.82        0.06     0.01   0.971
  2733                      57.50       0.00       0.00       1.76      14.38      41.44      55.82        0.06     0.01   0.971
  2734                      57.50       0.00       0.00       1.76      14.38      41.44      55.82        0.06     0.01   0.971
  2735                      57.50       0.00       0.00       1.76      14.38      41.44      55.82        0.06     0.01   0.971
  2736                      57.50       0.00       0.00       1.76      14.38      41.44      55.82        0.06     0.01   0.971
  2737                      57.50       0.00       0.00       1.76      14.38      41.44      55.82        0.06     0.01   0.971
  2738                      57.50       0.00       0.00       1.76      14.38      41.44      55.82        0.06     0.01   0.971
  2739                      57.50       0.00       0.00       1.76      14.38      41.44      55.82        0.06     0.01   0.971
  2740                      57.50       0.00       0.00       1.76      14.38      41.44      55.82        0.06     0.01   0.971
  2741                      57.50       0.00       0.00       1.76      14.38      41.44      55.82        0.06     0.01   0.971
  2742                      57.50       0.00       0.00       1.76      14.38      41.44      55.82        0.06     0.01   0.971
  2743                      57.50       0.00       0.00       1.76      14.38      41.44      55.82        0.06     0.01   0.971
  2744                      57.50       0.00       0.00       1.76      14.38      41.44      55.82        0.06     0.01   0.971
  2745                      57.50       0.00       0.00       1.76      14.38      41.44      55.82        0.06     0.01   0.971
  2746                      57.50       0.00       0.00       1.76      14.38      41.44      55.82        0.06     0.01   0.971
  2747                      57.50       0.00       0.00       1.76      14.38      41.44      55.82        0.06     0.01   0.971
  2748                      57.50       0.00       0.00       1.76      14.38      41.44      55.82        0.06     0.01   0.971
  2749                      57.50       0.00       0.00       1.76      14.38      41.44      55.82        0.06     0.01   0.971
  2750                      57.50       0.00       0.00       1.76      14.38      41.44      55.82        0.06     0.01   0.971
  2751                      57.50       0.00       0.00       1.76      14.38      41.44      55.82        0.06     0.01   0.971
  2752                      57.50       0.00       0.00       1.76      14.38      41.44      55.82        0.06     0.01   0.971
  2753                      57.50       0.00       0.00       1.76      14.38      41.44      55.82        0.06     0.01   0.971
  2754                      57.50       0.00       0.00       1.76      14.38      41.44      55.82        0.06     0.01   0.971
  2755                      57.50       0.00       0.00       1.76      14.38      41.44      55.82        0.06     0.01   0.971
  2756                      57.50       0.00       0.00       1.76      14.38      41.44      55.82        0.06     0.01   0.971
  2964                      57.50       0.00       0.00       1.76      14.38      41.44      55.82        0.06     0.01   0.971
  2969                      57.50       0.00       0.00       1.76      14.38      41.44      55.82        0.06     0.01   0.971
  2970                      57.50       0.00       0.00       1.76      14.38      41.44      55.82        0.06     0.01   0.971
  2974                      57.50       0.00       0.00       1.76      14.38      41.44      55.82        0.06     0.01   0.971
  2975                      57.50       0.00       0.00       1.76      14.38      41.44      55.82        0.06     0.01   0.971
  2976                      57.50       0.00       0.00       1.76      14.38      41.44      55.82        0.06     0.01   0.971
  2977                      57.50       0.00       0.00       1.76      14.38      41.44      55.82        0.06     0.01   0.971
  2978                      57.50       0.00       0.00       1.76      14.38      41.44      55.82        0.06     0.01   0.971
  2979                      57.50       0.00       0.00       1.76      14.38      41.44      55.82        0.06     0.01   0.971
  2980                      57.50       0.00       0.00       1.76      14.38      41.44      55.82        0.06     0.01   0.971
  2981                      57.50       0.00       0.00       1.76      14.38      41.44      55.82        0.06     0.01   0.971
  2982                      57.50       0.00       0.00       1.76      14.38      41.44      55.82        0.06     0.01   0.971
  2984                      57.50       0.00       0.00       1.76      14.38      41.44      55.82        0.06     0.01   0.971
  2985                      57.50       0.00       0.00       1.76      14.38      41.44      55.82        0.06     0.01   0.971
  3925                      57.50       0.00       0.00       1.76      14.38      41.44      55.82        0.06     0.01   0.971
  3926                      57.50       0.00       0.00       1.76      14.38      41.44      55.82        0.06     0.01   0.971
  3927                      57.50       0.00       0.00       1.76      14.38      41.44      55.82        0.06     0.01   0.971
  3928                      57.50       0.00       0.00       1.76      14.38      41.44      55.82        0.06     0.01   0.971
  3929                      57.50       0.00       0.00       1.76      14.38      41.44      55.82        0.06     0.01   0.971
  3930                      57.50       0.00       0.00       1.76      14.38      41.44      55.82        0.06     0.01   0.971
  3931                      57.50       0.00       0.00       1.76      14.38      41.44      55.82        0.06     0.01   0.971
  3932                      57.50       0.00       0.00       1.76      14.38      41.44      55.82        0.06     0.01   0.971
  3933                      57.50       0.00       0.00       1.76      14.38      41.44      55.82        0.06     0.01   0.971
  3934                      57.50       0.00       0.00       1.76      14.38      41.44      55.82        0.06     0.01   0.971
  3935                      57.50       0.00       0.00       1.76      14.38      41.44      55.82        0.06     0.01   0.971
  3936                      57.50       0.00       0.00       1.76      14.38      41.44      55.82        0.06     0.01   0.971
  3937                      57.50       0.00       0.00       1.76      14.38      41.44      55.82        0.06     0.01   0.971
  3938                      57.50       0.00       0.00       1.76      14.38      41.44      55.82        0.06     0.01   0.971
  3939                      57.50       0.00       0.00       1.76      14.38      41.44      55.82        0.06     0.01   0.971
  3940                      57.50       0.00       0.00       1.76      14.38      41.44      55.82        0.06     0.01   0.971
  3941                      57.50       0.00       0.00       1.76      14.38      41.44      55.82        0.06     0.01   0.971
  3942                      57.50       0.00       0.00       1.76      14.38      41.44      55.82        0.06     0.01   0.971
  3943                      57.50       0.00       0.00       1.76      14.38      41.44      55.82        0.06     0.01   0.971
  3944                      57.50       0.00       0.00       1.76      14.38      41.44      55.82        0.06     0.01   0.971
  3945                      57.50       0.00       0.00       1.76      14.38      41.44      55.82        0.06     0.01   0.971
  3946                      57.50       0.00       0.00       1.76      14.38      41.44      55.82        0.06     0.01   0.971
  3947                      57.50       0.00       0.00       1.76      14.38      41.44      55.82        0.06     0.01   0.971
  3948                      57.50       0.00       0.00       1.76      14.38      41.44      55.82        0.06     0.01   0.971
  3949                      57.50       0.00       0.00       1.76      14.38      41.44      55.82        0.06     0.01   0.971
  3950                      57.50       0.00       0.00       1.76      14.38      41.44      55.82        0.06     0.01   0.971
  3951                      57.50       0.00       0.00       1.76      14.38      41.44      55.82        0.06     0.01   0.971
  3952                      57.50       0.00       0.00       1.76      14.38      41.44      55.82        0.06     0.01   0.971
  3953                      57.50       0.00       0.00       1.76      14.38      41.44      55.82        0.06     0.01   0.971
  3954                      57.50       0.00       0.00       1.76      14.38      41.44      55.82        0.06     0.01   0.971
  3955                      57.50       0.00       0.00       1.76      14.38      41.44      55.82        0.06     0.01   0.971
  3956                      57.50       0.00       0.00       1.76      14.38      41.44      55.82        0.06     0.01   0.971
  4032                      57.50       0.00       0.00       1.76      14.38      41.44      55.82        0.06     0.01   0.971
  4033                      57.50       0.00       0.00       1.76      14.38      41.44      55.82        0.06     0.01   0.971
  4041                      57.50       0.00       0.00       1.76      14.38      41.44      55.82        0.06     0.01   0.971
  4051                      57.50       0.00       0.00       1.76      14.38      41.44      55.82        0.06     0.01   0.971
  4055                      57.50       0.00       0.00       1.76      14.38      41.44      55.82        0.06     0.01   0.971
  4056                      57.50       0.00       0.00       1.76      14.38      41.44      55.82        0.06     0.01   0.971
  4058                      57.50       0.00       0.00       1.76      14.38      41.44      55.82        0.06     0.01   0.971
  4385                      57.50       0.00       0.00       1.76      14.38      41.44      55.82        0.06     0.01   0.971
  4386                      57.50       0.00       0.00       1.76      14.38      41.44      55.82        0.06     0.01   0.971
  4387                      57.50       0.00       0.00       1.76      14.38      41.44      55.82        0.06     0.01   0.971
  4388                      57.50       0.00       0.00       1.76      14.38      41.44      55.82        0.06     0.01   0.971
  4389                      57.50       0.00       0.00       1.76      14.38      41.44      55.82        0.06     0.01   0.971
  4390                      57.50       0.00       0.00       1.76      14.38      41.44      55.82        0.06     0.01   0.971
  4391                      57.50       0.00       0.00       1.76      14.38      41.44      55.82        0.06     0.01   0.971
  4392                      57.50       0.00       0.00       1.76      14.38      41.44      55.82        0.06     0.01   0.971
  4393                      57.50       0.00       0.00       1.76      14.38      41.44      55.82        0.06     0.01   0.971
  4394                      57.50       0.00       0.00       1.76      14.38      41.44      55.82        0.06     0.01   0.971
  4395                      57.50       0.00       0.00       1.76      14.38      41.44      55.82        0.06     0.01   0.971
  4396                      57.50       0.00       0.00       1.76      14.38      41.44      55.82        0.06     0.01   0.971
  4397                      57.50       0.00       0.00       1.76      14.38      41.44      55.82        0.06     0.01   0.971
  4398                      57.50       0.00       0.00       1.76      14.38      41.44      55.82        0.06     0.01   0.971
  4429                      57.50       0.00       0.00       1.76      14.38      41.44      55.82        0.06     0.01   0.971
  4430                      57.50       0.00       0.00       1.76      14.38      41.44      55.82        0.06     0.01   0.971
  4431                      57.50       0.00       0.00       1.76      14.38      41.44      55.82        0.06     0.01   0.971
  4432                      57.50       0.00       0.00       1.76      14.38      41.44      55.82        0.06     0.01   0.971
  4433                      57.50       0.00       0.00       1.76      14.38      41.44      55.82        0.06     0.01   0.971
  4434                      57.50       0.00       0.00       1.76      14.38      41.44      55.82        0.06     0.01   0.971
  4435                      57.50       0.00       0.00       1.76      14.38      41.44      55.82        0.06     0.01   0.971
  4436                      57.50       0.00       0.00       1.76      14.38      41.44      55.82        0.06     0.01   0.971
  4437                      57.50       0.00       0.00       1.76      14.38      41.44      55.82        0.06     0.01   0.971
  4438                      57.50       0.00       0.00       1.76      14.38      41.44      55.82        0.06     0.01   0.971
  4439                      57.50       0.00       0.00       1.76      14.38      41.44      55.82        0.06     0.01   0.971
  4440                      57.50       0.00       0.00       1.76      14.38      41.44      55.82        0.06     0.01   0.971
  4441                      57.50       0.00       0.00       1.76      14.38      41.44      55.82        0.06     0.01   0.971
  4442                      57.50       0.00       0.00       1.76      14.38      41.44      55.82        0.06     0.01   0.971
  4443                      57.50       0.00       0.00       1.76      14.38      41.44      55.82        0.06     0.01   0.971
  4444                      57.50       0.00       0.00       1.76      14.38      41.44      55.82        0.06     0.01   0.971
  4445                      57.50       0.00       0.00       1.76      14.38      41.44      55.82        0.06     0.01   0.971
  4446                      57.50       0.00       0.00       1.76      14.38      41.44      55.82        0.06     0.01   0.971
  4447                      57.50       0.00       0.00       1.76      14.38      41.44      55.82        0.06     0.01   0.971
  4448                      57.50       0.00       0.00       1.76      14.38      41.44      55.82        0.06     0.01   0.971
  4449                      57.50       0.00       0.00       1.76      14.38      41.44      55.82        0.06     0.01   0.971
  4450                      57.50       0.00       0.00       1.76      14.38      41.44      55.82        0.06     0.01   0.971
  4451                      57.50       0.00       0.00       1.76      14.38      41.44      55.82        0.06     0.01   0.971
  4452                      57.50       0.00       0.00       1.76      14.38      41.44      55.82        0.06     0.01   0.971
  4453                      57.50       0.00       0.00       1.76      14.38      41.44      55.82        0.06     0.01   0.971
  4454                      57.50       0.00       0.00       1.76      14.38      41.44      55.82        0.06     0.01   0.971
  4462                      57.50       0.00       0.00       1.76      14.38      41.44      55.82        0.06     0.01   0.971
  4463                      57.50       0.00       0.00       1.76      14.38      41.44      55.82        0.06     0.01   0.971
  4563                      57.50       0.00       0.00       1.76      14.38      41.44      55.82        0.06     0.01   0.971
  4564                      57.50       0.00       0.00       1.76      14.38      41.44      55.82        0.06     0.01   0.971
  4565                      57.50       0.00       0.00       1.76      14.38      41.44      55.82        0.06     0.01   0.971
  4566                      57.50       0.00       0.00       1.76      14.38      41.44      55.82        0.06     0.01   0.971
  4567                      57.50       0.00       0.00       1.76      14.38      41.44      55.82        0.06     0.01   0.971
  4568                      57.50       0.00       0.00       1.76      14.38      41.44      55.82        0.06     0.01   0.971
  4569                      57.50       0.00       0.00       1.76      14.38      41.44      55.82        0.06     0.01   0.971
  4570                      57.50       0.00       0.00       1.76      14.38      41.44      55.82        0.06     0.01   0.971
  4571                      57.50       0.00       0.00       1.76      14.38      41.44      55.82        0.06     0.01   0.971
  4572                      57.50       0.00       0.00       1.76      14.38      41.44      55.82        0.06     0.01   0.971
  4573                      57.50       0.00       0.00       1.76      14.38      41.44      55.82        0.06     0.01   0.971
  4574                      57.50       0.00       0.00       1.76      14.38      41.44      55.82        0.06     0.01   0.971
  4575                      57.50       0.00       0.00       1.76      14.38      41.44      55.82        0.06     0.01   0.971
  4576                      57.50       0.00       0.00       1.76      14.38      41.44      55.82        0.06     0.01   0.971
  4577                      57.50       0.00       0.00       1.76      14.38      41.44      55.82        0.06     0.01   0.971
  4578                      57.50       0.00       0.00       1.76      14.38      41.44      55.82        0.06     0.01   0.971
  4579                      57.50       0.00       0.00       1.76      14.38      41.44      55.82        0.06     0.01   0.971
  4580                      57.50       0.00       0.00       1.76      14.38      41.44      55.82        0.06     0.01   0.971
  4581                      57.50       0.00       0.00       1.76      14.38      41.44      55.82        0.06     0.01   0.971
  4624                      57.50       0.00       0.00       1.76      14.38      41.44      55.82        0.06     0.01   0.971
  4625                      57.50       0.00       0.00       1.76      14.38      41.44      55.82        0.06     0.01   0.971
  4644                      57.50       0.00       0.00       1.76      14.38      41.44      55.82        0.06     0.01   0.971
  4645                      57.50       0.00       0.00       1.76      14.38      41.44      55.82        0.06     0.01   0.971
  4646                      57.50       0.00       0.00       1.76      14.38      41.44      55.82        0.06     0.01   0.971
  4679                      57.50       0.00       0.00       1.76      14.38      41.44      55.82        0.06     0.01   0.971
  4680                      57.50       0.00       0.00       1.76      14.38      41.44      55.82        0.06     0.01   0.971
  4681                      57.50       0.00       0.00       1.76      14.38      41.44      55.82        0.06     0.01   0.971
  4682                      57.50       0.00       0.00       1.76      14.38      41.44      55.82        0.06     0.01   0.971
  4683                      57.50       0.00       0.00       1.76      14.38      41.44      55.82        0.06     0.01   0.971
  4711                      57.50       0.00       0.00       1.76      14.38      41.44      55.82        0.06     0.01   0.971
  4712                      57.50       0.00       0.00       1.76      14.38      41.44      55.82        0.06     0.01   0.971
  4713                      57.50       0.00       0.00       1.76      14.38      41.44      55.82        0.06     0.01   0.971
  4714                      57.50       0.00       0.00       1.76      14.38      41.44      55.82        0.06     0.01   0.971
  4715                      57.50       0.00       0.00       1.76      14.38      41.44      55.82        0.06     0.01   0.971
  4716                      57.50       0.00       0.00       1.76      14.38      41.44      55.82        0.06     0.01   0.971
  4717                      57.50       0.00       0.00       1.76      14.38      41.44      55.82        0.06     0.01   0.971
  4718                      57.50       0.00       0.00       1.76      14.38      41.44      55.82        0.06     0.01   0.971
  4722                      57.50       0.00       0.00       1.76      14.38      41.44      55.82        0.06     0.01   0.971
  4760                      57.50       0.00       0.00       1.76      14.38      41.44      55.82        0.06     0.01   0.971
  4761                      57.50       0.00       0.00       1.76      14.38      41.44      55.82        0.06     0.01   0.971
  4765                      57.50       0.00       0.00       1.76      14.38      41.44      55.82        0.06     0.01   0.971
  4766                      57.50       0.00       0.00       1.76      14.38      41.44      55.82        0.06     0.01   0.971
  4767                      57.50       0.00       0.00       1.76      14.38      41.44      55.82        0.06     0.01   0.971
  4768                      57.50       0.00       0.00       1.76      14.38      41.44      55.82        0.06     0.01   0.971
  4769                      57.50       0.00       0.00       1.76      14.38      41.44      55.82        0.06     0.01   0.971
  4855                      57.50       0.00       0.00       1.76      14.38      41.44      55.82        0.06     0.01   0.971
  4856                      57.50       0.00       0.00       1.76      14.38      41.44      55.82        0.06     0.01   0.971
  5284                      57.50       0.00       0.00       1.76      14.38      41.44      55.82        0.06     0.01   0.971
  5285                      57.50       0.00       0.00       1.76      14.38      41.44      55.82        0.06     0.01   0.971
  5286                      57.50       0.00       0.00       1.76      14.38      41.44      55.82        0.06     0.01   0.971
  5287                      57.50       0.00       0.00       1.76      14.38      41.44      55.82        0.06     0.01   0.971
  5288                      57.50       0.00       0.00       1.76      14.38      41.44      55.82        0.06     0.01   0.971
  5289                      57.50       0.00       0.00       1.76      14.38      41.44      55.82        0.06     0.01   0.971
  5290                      57.50       0.00       0.00       1.76      14.38      41.44      55.82        0.06     0.01   0.971
  5291                      57.50       0.00       0.00       1.76      14.38      41.44      55.82        0.06     0.01   0.971
  5292                      57.50       0.00       0.00       1.76      14.38      41.44      55.82        0.06     0.01   0.971
  5293                      57.50       0.00       0.00       1.76      14.38      41.44      55.82        0.06     0.01   0.971
  5294                      57.50       0.00       0.00       1.76      14.38      41.44      55.82        0.06     0.01   0.971
  5295                      57.50       0.00       0.00       1.76      14.38      41.44      55.82        0.06     0.01   0.971
  5296                      57.50       0.00       0.00       1.76      14.38      41.44      55.82        0.06     0.01   0.971
  5297                      57.50       0.00       0.00       1.76      14.38      41.44      55.82        0.06     0.01   0.971
  5298                      57.50       0.00       0.00       1.76      14.38      41.44      55.82        0.06     0.01   0.971
  5299                      57.50       0.00       0.00       1.76      14.38      41.44      55.82        0.06     0.01   0.971
  5300                      57.50       0.00       0.00       1.76      14.38      41.44      55.82        0.06     0.01   0.971
  5301                      57.50       0.00       0.00       1.76      14.38      41.44      55.82        0.06     0.01   0.971
  5302                      57.50       0.00       0.00       1.76      14.38      41.44      55.82        0.06     0.01   0.971
  5303                      57.50       0.00       0.00       1.76      14.38      41.44      55.82        0.06     0.01   0.971
  5304                      57.50       0.00       0.00       1.76      14.38      41.44      55.82        0.06     0.01   0.971
  5305                      57.50       0.00       0.00       1.76      14.38      41.44      55.82        0.06     0.01   0.971
  5306                      57.50       0.00       0.00       1.76      14.38      41.44      55.82        0.06     0.01   0.971
  5307                      57.50       0.00       0.00       1.76      14.38      41.44      55.82        0.06     0.01   0.971
  5308                      57.50       0.00       0.00       1.76      14.38      41.44      55.82        0.06     0.01   0.971
  5309                      57.50       0.00       0.00       1.76      14.38      41.44      55.82        0.06     0.01   0.971
  5310                      57.50       0.00       0.00       1.76      14.38      41.44      55.82        0.06     0.01   0.971
  5311                      57.50       0.00       0.00       1.76      14.38      41.44      55.82        0.06     0.01   0.971
  5312                      57.50       0.00       0.00       1.76      14.38      41.44      55.82        0.06     0.01   0.971
  5313                      57.50       0.00       0.00       1.76      14.38      41.44      55.82        0.06     0.01   0.971
  5314                      57.50       0.00       0.00       1.76      14.38      41.44      55.82        0.06     0.01   0.971
  5315                      57.50       0.00       0.00       1.76      14.38      41.44      55.82        0.06     0.01   0.971
  5316                      57.50       0.00       0.00       1.76      14.38      41.44      55.82        0.06     0.01   0.971
  5317                      57.50       0.00       0.00       1.76      14.38      41.44      55.82        0.06     0.01   0.971
  5318                      57.50       0.00       0.00       1.76      14.38      41.44      55.82        0.06     0.01   0.971
  5319                      57.50       0.00       0.00       1.76      14.38      41.44      55.82        0.06     0.01   0.971
  5320                      57.50       0.00       0.00       1.76      14.38      41.44      55.82        0.06     0.01   0.971
  5321                      57.50       0.00       0.00       1.76      14.38      41.44      55.82        0.06     0.01   0.971
  5322                      57.50       0.00       0.00       1.76      14.38      41.44      55.82        0.06     0.01   0.971
  5323                      57.50       0.00       0.00       1.76      14.38      41.44      55.82        0.06     0.01   0.971
  5324                      57.50       0.00       0.00       1.76      14.38      41.44      55.82        0.06     0.01   0.971
  5325                      57.50       0.00       0.00       1.76      14.38      41.44      55.82        0.06     0.01   0.971
  5326                      57.50       0.00       0.00       1.76      14.38      41.44      55.82        0.06     0.01   0.971
  5327                      57.50       0.00       0.00       1.76      14.38      41.44      55.82        0.06     0.01   0.971
  5328                      57.50       0.00       0.00       1.76      14.38      41.44      55.82        0.06     0.01   0.971
  5329                      57.50       0.00       0.00       1.76      14.38      41.44      55.82        0.06     0.01   0.971
  5330                      57.50       0.00       0.00       1.76      14.38      41.44      55.82        0.06     0.01   0.971
  5333                      57.50       0.00       0.00       1.76      14.38      41.44      55.82        0.06     0.01   0.971
  5334                      57.50       0.00       0.00       1.76      14.38      41.44      55.82        0.06     0.01   0.971
  6040                      57.50       0.00       0.00       1.76      14.38      41.44      55.82        0.06     0.01   0.971
  6041                      57.50       0.00       0.00       1.76      14.38      41.44      55.82        0.06     0.01   0.971
  6162                      57.50       0.00       0.00       1.76      14.38      41.44      55.82        0.06     0.01   0.971
  7207                      57.50       0.00       0.00       1.76      14.38      41.44      55.82        0.06     0.01   0.971
  7208                      57.50       0.00       0.00       1.76      14.38      41.44      55.82        0.06     0.01   0.971
  7213                      57.50       0.00       0.00       1.76      14.38      41.44      55.82        0.06     0.01   0.971
  7214                      57.50       0.00       0.00       1.76      14.38      41.44      55.82        0.06     0.01   0.971
  7219                      57.50       0.00       0.00       1.76      14.38      41.44      55.82        0.06     0.01   0.971
  7220                      57.50       0.00       0.00       1.76      14.38      41.44      55.82        0.06     0.01   0.971
  7221                      57.50       0.00       0.00       1.76      14.38      41.44      55.82        0.06     0.01   0.971
  7225                      57.50       0.00       0.00       1.76      14.38      41.44      55.82        0.06     0.01   0.971
  7229                      57.50       0.00       0.00       1.76      14.38      41.44      55.82        0.06     0.01   0.971
  7231                      57.50       0.00       0.00       1.76      14.38      41.44      55.82        0.06     0.01   0.971
  7268                      57.50       0.00       0.00       1.76      14.38      41.44      55.82        0.06     0.01   0.971
  7269                      57.50       0.00       0.00       1.76      14.38      41.44      55.82        0.06     0.01   0.971
  7271                      57.50       0.00       0.00       1.76      14.38      41.44      55.82        0.06     0.01   0.971
  7272                      57.50       0.00       0.00       1.76      14.38      41.44      55.82        0.06     0.01   0.971
  7273                      57.50       0.00       0.00       1.76      14.38      41.44      55.82        0.06     0.01   0.971
  7433                      57.50       0.00       0.00       1.76      14.38      41.44      55.82        0.06     0.01   0.971
  7434                      57.50       0.00       0.00       1.76      14.38      41.44      55.82        0.06     0.01   0.971
  7544                      57.50       0.00       0.00       1.76      14.38      41.44      55.82        0.06     0.01   0.971
  7545                      57.50       0.00       0.00       1.76      14.38      41.44      55.82        0.06     0.01   0.971
  8737                      57.50       0.00       0.00       1.76      14.38      41.44      55.82        0.06     0.01   0.971
  8818                      57.50       0.00       0.00       1.76      14.38      41.44      55.82        0.06     0.01   0.971
  9942                      57.50       0.00       0.00       1.76      14.38      41.44      55.82        0.06     0.01   0.971
  9957                      57.50       0.00       0.00       1.76      14.38      41.44      55.82        0.06     0.01   0.971
  4399                      57.50       0.00       0.00       1.69      14.37      41.49      55.86        0.02     0.00   0.972
  4400                      57.50       0.00       0.00       1.69      14.37      41.49      55.86        0.02     0.00   0.972
  4401                      57.50       0.00       0.00       1.69      14.37      41.49      55.86        0.02     0.00   0.972
  4402                      57.50       0.00       0.00       1.69      14.37      41.49      55.86        0.02     0.00   0.972
  4403                      57.50       0.00       0.00       1.69      14.37      41.49      55.86        0.02     0.00   0.972
  4404                      57.50       0.00       0.00       1.69      14.37      41.49      55.86        0.02     0.00   0.972
  4405                      57.50       0.00       0.00       1.69      14.37      41.49      55.86        0.02     0.00   0.972
  4406                      57.50       0.00       0.00       1.69      14.37      41.49      55.86        0.02     0.00   0.972
  4407                      57.50       0.00       0.00       1.69      14.37      41.49      55.86        0.02     0.00   0.972
  4408                      57.50       0.00       0.00       1.69      14.37      41.49      55.86        0.02     0.00   0.972
  4409                      57.50       0.00       0.00       1.69      14.37      41.49      55.86        0.02     0.00   0.972
  4410                      57.50       0.00       0.00       1.69      14.37      41.49      55.86        0.02     0.00   0.972
  4411                      57.50       0.00       0.00       1.69      14.37      41.49      55.86        0.02     0.00   0.972
  4412                      57.50       0.00       0.00       1.69      14.37      41.49      55.86        0.02     0.00   0.972
  4423                      57.50       0.00       0.00       1.69      14.37      41.49      55.86        0.02     0.00   0.972
  4424                      57.50       0.00       0.00       1.69      14.37      41.49      55.86        0.02     0.00   0.972
  4425                      57.50       0.00       0.00       1.69      14.37      41.49      55.86        0.02     0.00   0.972
  4426                      57.50       0.00       0.00       1.69      14.37      41.49      55.86        0.02     0.00   0.972
  4427                      57.50       0.00       0.00       1.69      14.37      41.49      55.86        0.02     0.00   0.972
  4428                      57.50       0.00       0.00       1.69      14.37      41.49      55.86        0.02     0.00   0.972
  4455                      57.50       0.00       0.00       1.69      14.37      41.49      55.86        0.02     0.00   0.972
  4456                      57.50       0.00       0.00       1.69      14.37      41.49      55.86        0.02     0.00   0.972
  4457                      57.50       0.00       0.00       1.69      14.37      41.49      55.86        0.02     0.00   0.972
  4458                      57.50       0.00       0.00       1.69      14.37      41.49      55.86        0.02     0.00   0.972
  4459                      57.50       0.00       0.00       1.69      14.37      41.49      55.86        0.02     0.00   0.972
  4460                      57.50       0.00       0.00       1.69      14.37      41.49      55.86        0.02     0.00   0.972
  4461                      57.50       0.00       0.00       1.69      14.37      41.49      55.86        0.02     0.00   0.972
  4464                      57.50       0.00       0.00       1.69      14.37      41.49      55.86        0.02     0.00   0.972
  4465                      57.50       0.00       0.00       1.69      14.37      41.49      55.86        0.02     0.00   0.972
  4466                      57.50       0.00       0.00       1.69      14.37      41.49      55.86        0.02     0.00   0.972
  4467                      57.50       0.00       0.00       1.69      14.37      41.49      55.86        0.02     0.00   0.972
  4468                      57.50       0.00       0.00       1.69      14.37      41.49      55.86        0.02     0.00   0.972
  4469                      57.50       0.00       0.00       1.69      14.37      41.49      55.86        0.02     0.00   0.972
  4470                      57.50       0.00       0.00       1.69      14.37      41.49      55.86        0.02     0.00   0.972
  4471                      57.50       0.00       0.00       1.69      14.37      41.49      55.86        0.02     0.00   0.972
  4472                      57.50       0.00       0.00       1.69      14.37      41.49      55.86        0.02     0.00   0.972
  4473                      57.50       0.00       0.00       1.69      14.37      41.49      55.86        0.02     0.00   0.972
  4474                      57.50       0.00       0.00       1.69      14.37      41.49      55.86        0.02     0.00   0.972
  4628                      57.50       0.00       0.00       1.69      14.37      41.49      55.86        0.02     0.00   0.972
  4631                      57.50       0.00       0.00       1.69      14.37      41.49      55.86        0.02     0.00   0.972
  4632                      57.50       0.00       0.00       1.69      14.37      41.49      55.86        0.02     0.00   0.972
  4633                      57.50       0.00       0.00       1.69      14.37      41.49      55.86        0.02     0.00   0.972
  4634                      57.50       0.00       0.00       1.69      14.37      41.49      55.86        0.02     0.00   0.972
  4637                      57.50       0.00       0.00       1.69      14.37      41.49      55.86        0.02     0.00   0.972
  4686                      57.50       0.00       0.00       1.69      14.37      41.49      55.86        0.02     0.00   0.972
  4687                      57.50       0.00       0.00       1.69      14.37      41.49      55.86        0.02     0.00   0.972
  4688                      57.50       0.00       0.00       1.69      14.37      41.49      55.86        0.02     0.00   0.972
  5032                      57.50       0.00       0.00       1.69      14.37      41.49      55.86        0.02     0.00   0.972
  5331                      57.50       0.00       0.00       1.69      14.37      41.49      55.86        0.02     0.00   0.972
  5332                      57.50       0.00       0.00       1.69      14.37      41.49      55.86        0.02     0.00   0.972
  5335                      57.50       0.00       0.00       1.69      14.37      41.49      55.86        0.02     0.00   0.972
  5336                      57.50       0.00       0.00       1.69      14.37      41.49      55.86        0.02     0.00   0.972
  5337                      57.50       0.00       0.00       1.69      14.37      41.49      55.86        0.02     0.00   0.972
  5338                      57.50       0.00       0.00       1.69      14.37      41.49      55.86        0.02     0.00   0.972
  5339                      57.50       0.00       0.00       1.69      14.37      41.49      55.86        0.02     0.00   0.972
  5340                      57.50       0.00       0.00       1.69      14.37      41.49      55.86        0.02     0.00   0.972
  5341                      57.50       0.00       0.00       1.69      14.37      41.49      55.86        0.02     0.00   0.972
  5342                      57.50       0.00       0.00       1.69      14.37      41.49      55.86        0.02     0.00   0.972
  5343                      57.50       0.00       0.00       1.69      14.37      41.49      55.86        0.02     0.00   0.972
  5344                      57.50       0.00       0.00       1.69      14.37      41.49      55.86        0.02     0.00   0.972
  5345                      57.50       0.00       0.00       1.69      14.37      41.49      55.86        0.02     0.00   0.972
  5346                      57.50       0.00       0.00       1.69      14.37      41.49      55.86        0.02     0.00   0.972
  5347                      57.50       0.00       0.00       1.69      14.37      41.49      55.86        0.02     0.00   0.972
  5348                      57.50       0.00       0.00       1.69      14.37      41.49      55.86        0.02     0.00   0.972
  5349                      57.50       0.00       0.00       1.69      14.37      41.49      55.86        0.02     0.00   0.972
  5350                      57.50       0.00       0.00       1.69      14.37      41.49      55.86        0.02     0.00   0.972
  6088                      57.50       0.00       0.00       1.69      14.37      41.49      55.86        0.02     0.00   0.972
  7275                      57.50       0.00       0.00       1.69      14.37      41.49      55.86        0.02     0.00   0.972
  9955                      57.50       0.00       0.00       1.69      14.37      41.49      55.86        0.02     0.00   0.972
  9956                      57.50       0.00       0.00       1.69      14.37      41.49      55.86        0.02     0.00   0.972
  
  
  ****************************
  Subcatchment Washoff Summary
  ****************************
  
  ----------------------------------
                                 COD
  Subcatchment                    kg
  ----------------------------------
  2707                        14.680
  2708                        14.680
  2709                        14.680
  2710                        14.680
  2712                        14.680
  2713                        14.680
  2714                        14.680
  2715                        14.680
  2716                        14.680
  2717                        14.680
  2718                        14.680
  2719                        14.680
  2721                        14.680
  2722                        14.680
  2723                        14.680
  2724                        14.680
  2725                        14.680
  2726                        14.680
  2727                        14.680
  2728                        14.680
  2729                        14.680
  2730                        14.680
  2731                        14.680
  2732                        14.680
  2733                        14.680
  2734                        14.680
  2735                        14.680
  2736                        14.680
  2737                        14.680
  2738                        14.680
  2739                        14.680
  2740                        14.680
  2741                        14.680
  2742                        14.680
  2743                        14.680
  2744                        14.680
  2745                        14.680
  2746                        14.680
  2747                        14.680
  2748                        14.680
  2749                        14.680
  2750                        14.680
  2751                        14.680
  2752                        14.680
  2753                        14.680
  2754                        14.680
  2755                        14.680
  2756                        14.680
  2964                        14.680
  2969                        14.680
  2970                        14.680
  2974                        14.680
  2975                        14.680
  2976                        14.680
  2977                        14.680
  2978                        14.680
  2979                        14.680
  2980                        14.680
  2981                        14.680
  2982                        14.680
  2984                        14.680
  2985                        14.680
  3925                        14.680
  3926                        14.680
  3927                        14.680
  3928                        14.680
  3929                        14.680
  3930                        14.680
  3931                        14.680
  3932                        14.680
  3933                        14.680
  3934                        14.680
  3935                        14.680
  3936                        14.680
  3937                        14.680
  3938                        14.680
  3939                        14.680
  3940                        14.680
  3941                        14.680
  3942                        14.680
  3943                        14.680
  3944                        14.680
  3945                        14.680
  3946                        14.680
  3947                        14.680
  3948                        14.680
  3949                        14.680
  3950                        14.680
  3951                        14.680
  3952                        14.680
  3953                        14.680
  3954                        14.680
  3955                        14.680
  3956                        14.680
  4032                        14.680
  4033                        14.680
  4041                        14.680
  4051                        14.680
  4055                        14.680
  4056                        14.680
  4058                        14.680
  4385                        14.680
  4386                        14.680
  4387                        14.680
  4388                        14.680
  4389                        14.680
  4390                        14.680
  4391                        14.680
  4392                        14.680
  4393                        14.680
  4394                        14.680
  4395                        14.680
  4396                        14.680
  4397                        14.680
  4398                        14.680
  4429                        14.680
  4430                        14.680
  4431                        14.680
  4432                        14.680
  4433                        14.680
  4434                        14.680
  4435                        14.680
  4436                        14.680
  4437                        14.680
  4438                        14.680
  4439                        14.680
  4440                        14.680
  4441                        14.680
  4442                        14.680
  4443                        14.680
  4444                        14.680
  4445                        14.680
  4446                        14.680
  4447                        14.680
  4448                        14.680
  4449                        14.680
  4450                        14.680
  4451                        14.680
  4452                        14.680
  4453                        14.680
  4454                        14.680
  4462                        14.680
  4463                        14.680
  4563                        14.680
  4564                        14.680
  4565                        14.680
  4566                        14.680
  4567                        14.680
  4568                        14.680
  4569                        14.680
  4570                        14.680
  4571                        14.680
  4572                        14.680
  4573                        14.680
  4574                        14.680
  4575                        14.680
  4576                        14.680
  4577                        14.680
  4578                        14.680
  4579                        14.680
  4580                        14.680
  4581                        14.680
  4624                        14.680
  4625                        14.680
  4644                        14.680
  4645                        14.680
  4646                        14.680
  4679                        14.680
  4680                        14.680
  4681                        14.680
  4682                        14.680
  4683                        14.680
  4711                        14.680
  4712                        14.680
  4713                        14.680
  4714                        14.680
  4715                        14.680
  4716                        14.680
  4717                        14.680
  4718                        14.680
  4722                        14.680
  4760                        14.680
  4761                        14.680
  4765                        14.680
  4766                        14.680
  4767                        14.680
  4768                        14.680
  4769                        14.680
  4855                        14.680
  4856                        14.680
  5284                        14.680
  5285                        14.680
  5286                        14.680
  5287                        14.680
  5288                        14.680
  5289                        14.680
  5290                        14.680
  5291                        14.680
  5292                        14.680
  5293                        14.680
  5294                        14.680
  5295                        14.680
  5296                        14.680
  5297                        14.680
  5298                        14.680
  5299                        14.680
  5300                        14.680
  5301                        14.680
  5302                        14.680
  5303                        14.680
  5304                        14.680
  5305                        14.680
  5306                        14.680
  5307                        14.680
  5308                        14.680
  5309                        14.680
  5310                        14.680
  5311                        14.680
  5312                        14.680
  5313                        14.680
  5314                        14.680
  5315                        14.680
  5316                        14.680
  5317                        14.680
  5318                        14.680
  5319                        14.680
  5320                        14.680
  5321                        14.680
  5322                        14.680
  5323                        14.680
  5324                        14.680
  5325                        14.680
  5326                        14.680
  5327                        14.680
  5328                        14.680
  5329                        14.680
  5330                        14.680
  5333                        14.680
  5334                        14.680
  6040                        14.680
  6041                        14.680
  6162                        14.680
  7207                        14.680
  7208                        14.680
  7213                        14.680
  7214                        14.680
  7219                        14.680
  7220                        14.680
  7221                        14.680
  7225                        14.680
  7229                        14.680
  7231                        14.680
  7268                        14.680
  7269                        14.680
  7271                        14.680
  7272                        14.680
  7273                        14.680
  7433                        14.680
  7434                        14.680
  7544                        14.680
  7545                        14.680
  8737                        14.680
  8818                        14.680
  9942                        14.680
  9957                        14.680
  4399                         4.408
  4400                         4.408
  4401                         4.408
  4402                         4.408
  4403                         4.408
  4404                         4.408
  4405                         4.408
  4406                         4.408
  4407                         4.408
  4408                         4.408
  4409                         4.408
  4410                         4.408
  4411                         4.408
  4412                         4.408
  4423                         4.408
  4424                         4.408
  4425                         4.408
  4426                         4.408
  4427                         4.408
  4428                         4.408
  4455                         4.408
  4456                         4.408
  4457                         4.408
  4458                         4.408
  4459                         4.408
  4460                         4.408
  4461                         4.408
  4464                         4.408
  4465                         4.408
  4466                         4.408
  4467                         4.408
  4468                         4.408
  4469                         4.408
  4470                         4.408
  4471                         4.408
  4472                         4.408
  4473                         4.408
  4474                         4.408
  4628                         4.408
  4631                         4.408
  4632                         4.408
  4633                         4.408
  4634                         4.408
  4637                         4.408
  4686                         4.408
  4687                         4.408
  4688                         4.408
  5032                         4.408
  5331                         4.408
  5332                         4.408
  5335                         4.408
  5336                         4.408
  5337                         4.408
  5338                         4.408
  5339                         4.408
  5340                         4.408
  5341                         4.408
  5342                         4.408
  5343                         4.408
  5344                         4.408
  5345                         4.408
  5346                         4.408
  5347                         4.408
  5348                         4.408
  5349                         4.408
  5350                         4.408
  6088                         4.408
  7275                         4.408
  9955                         4.408
  9956                         4.408
  ----------------------------------
  System                    4198.608
  
  
  ******************
  Node Depth Summary
  ******************
  
  ---------------------------------------------------------------------------------
                                 Average  Maximum  Maximum  Time of Max    Reported
                                   Depth    Depth      HGL   Occurrence   Max Depth
  Node                 Type       Meters   Meters   Meters  days hr:min      Meters
  ---------------------------------------------------------------------------------
  Node_02706           JUNCTION     2.57     4.54   101.38     0  03:14        0.00
  Node_02707           JUNCTION     0.97     2.44   101.88     0  02:29        0.00
  Node_02708           JUNCTION     0.84     2.45   102.21     0  02:28        0.00
  Node_02709           JUNCTION     0.94     2.68   102.31     0  02:28        0.00
  Node_02711           JUNCTION     0.63     2.38   102.30     0  02:28        0.00
  Node_02712           JUNCTION     0.64     2.36   102.26     0  02:28        0.00
  Node_02713           JUNCTION     0.68     2.35   102.20     0  02:28        0.00
  Node_02714           JUNCTION     0.33     1.81   102.21     0  02:28        0.00
  Node_02715           JUNCTION     0.69     2.21   102.02     0  02:28        0.00
  Node_02716           JUNCTION     0.75     2.19   101.91     0  02:30        0.00
  Node_02717           JUNCTION     0.81     2.24   101.87     0  02:29        0.00
  Node_02718           JUNCTION     0.82     2.27   101.87     0  02:29        0.00
  Node_02720           JUNCTION     0.84     2.32   101.88     0  02:29        0.00
  Node_02721           JUNCTION     1.14     2.65   101.89     0  02:29        0.00
  Node_02722           JUNCTION     0.14     0.19   101.99     0  02:30        0.00
  Node_02723           JUNCTION     1.07     2.57   101.87     0  02:29        0.00
  Node_02724           JUNCTION     0.93     2.40   101.81     0  02:29        0.00
  Node_02725           JUNCTION     0.95     2.38   101.75     0  02:29        0.00
  Node_02726           JUNCTION     1.03     2.42   101.68     0  02:29        0.00
  Node_02727           JUNCTION     1.13     2.47   101.60     0  02:29        0.00
  Node_02728           JUNCTION     0.49     1.53   101.61     0  02:29        0.00
  Node_02729           JUNCTION     1.17     2.45   101.51     0  02:29        0.00
  Node_02730           JUNCTION     1.18     2.38   101.41     0  02:29        0.00
  Node_02731           JUNCTION     1.59     2.70   101.29     0  02:29        0.00
  Node_02732           JUNCTION     1.15     2.19   101.21     0  02:29        0.00
  Node_02733           JUNCTION     1.14     2.25   101.25     0  03:10        0.00
  Node_02734           JUNCTION     1.42     2.57   101.28     0  03:10        0.00
  Node_02735           JUNCTION     1.32     2.47   101.28     0  03:14        0.00
  Node_02736           JUNCTION     1.50     2.69   101.30     0  03:11        0.00
  Node_02737           JUNCTION     1.47     2.70   101.32     0  03:08        0.00
  Node_02738           JUNCTION     1.29     2.57   101.34     0  03:14        0.00
  Node_02739           JUNCTION     1.15     2.49   101.36     0  03:15        0.00
  Node_02740           JUNCTION     1.15     2.53   101.37     0  03:14        0.00
  Node_02741           JUNCTION     0.81     2.07   101.37     0  03:12        0.00
  Node_02742           JUNCTION     1.15     2.57   101.37     0  03:12        0.00
  Node_02743           JUNCTION     1.55     3.01   101.38     0  03:14        0.00
  Node_02744           JUNCTION     0.73     2.04   101.38     0  03:12        0.00
  Node_02745           JUNCTION     1.26     2.76   101.38     0  03:12        0.00
  Node_02746           JUNCTION     1.15     2.69   101.38     0  03:15        0.00
  Node_02747           JUNCTION     0.26     1.03   101.39     0  03:14        0.00
  Node_02748           JUNCTION     0.22     0.93   101.38     0  03:14        0.00
  Node_02749           JUNCTION     1.14     2.74   101.38     0  03:14        0.00
  Node_02750           JUNCTION     1.12     2.78   101.38     0  03:14        0.00
  Node_02751           JUNCTION     1.09     2.79   101.38     0  03:15        0.00
  Node_02752           JUNCTION     1.08     2.83   101.38     0  03:12        0.00
  Node_02753           JUNCTION     1.09     2.90   101.38     0  03:14        0.00
  Node_02754           JUNCTION     1.09     3.06   101.37     0  03:14        0.00
  Node_02755           JUNCTION     2.02     3.98   101.38     0  03:14        0.00
  Node_02963           JUNCTION     0.63     1.97   101.88     0  02:29        0.00
  Node_02968           JUNCTION     0.38     1.23   101.36     0  03:11        0.00
  Node_02969           JUNCTION     0.46     1.50   101.38     0  03:15        0.00
  Node_02973           JUNCTION     1.54     3.49   101.38     0  03:14        0.00
  Node_02974           JUNCTION     1.60     3.93   101.06     0  03:15        0.00
  Node_02975           JUNCTION     1.61     3.94   101.07     0  03:15        0.00
  Node_02976           JUNCTION     1.72     4.01   101.20     0  03:14        0.00
  Node_02977           JUNCTION     1.84     4.08   101.41     0  03:14        0.00
  Node_02978           JUNCTION     1.76     3.99   101.52     0  03:14        0.00
  Node_02979           JUNCTION     1.49     3.84   100.96     0  03:14        0.00
  Node_02980           JUNCTION     1.36     3.74   100.83     0  03:15        0.00
  Node_02981           JUNCTION     1.30     3.74   100.69     0  03:15        0.00
  Node_02983           JUNCTION     0.38     1.22   101.34     0  03:14        0.00
  Node_02984           JUNCTION     2.16     4.39   101.37     0  03:14        0.00
  Node_03924           JUNCTION     0.23     1.00   101.82     0  02:21        0.00
  Node_03925           JUNCTION     0.61     2.06   102.43     0  02:34        0.00
  Node_03926           JUNCTION     0.17     0.96   102.43     0  02:58        0.00
  Node_03927           JUNCTION     0.60     2.05   102.43     0  02:59        0.00
  Node_03928           JUNCTION     0.61     2.08   102.42     0  02:56        0.00
  Node_03929           JUNCTION     0.62     2.10   102.41     0  02:51        0.00
  Node_03930           JUNCTION     0.65     2.13   102.39     0  02:43        0.00
  Node_03931           JUNCTION     0.64     2.13   102.38     0  02:43        0.00
  Node_03932           JUNCTION     0.68     2.16   102.32     0  02:49        0.00
  Node_03933           JUNCTION     0.67     2.13   102.25     0  02:36        0.00
  Node_03934           JUNCTION     0.31     1.40   102.26     0  02:55        0.00
  Node_03935           JUNCTION     0.73     2.17   102.15     0  02:57        0.00
  Node_03936           JUNCTION     0.74     2.12   102.05     0  03:05        0.00
  Node_03937           JUNCTION     1.30     1.77   101.93     0  02:32        0.00
  Node_03938           JUNCTION     1.44     3.25   102.44     0  02:31        0.00
  Node_03939           JUNCTION     1.53     3.39   102.43     0  02:57        0.00
  Node_03940           JUNCTION     1.60     3.47   102.40     0  02:49        0.00
  Node_03941           JUNCTION     1.67     3.53   102.34     0  02:19        0.00
  Node_03942           JUNCTION     1.69     3.53   102.28     0  02:51        0.00
  Node_03943           JUNCTION     1.77     3.58   102.19     0  01:55        0.00
  Node_03944           JUNCTION     1.86     3.69   102.17     0  01:55        0.00
  Node_03945           JUNCTION     1.92     3.78   102.20     0  02:19        0.00
  Node_03946           JUNCTION     1.98     3.88   102.24     0  03:01        0.00
  Node_03947           JUNCTION     2.26     4.38   102.27     0  03:10        0.00
  Node_03948           JUNCTION     2.21     4.42   102.27     0  03:07        0.00
  Node_03949           JUNCTION     2.31     4.57   102.27     0  03:13        0.00
  Node_03950           JUNCTION     2.17     4.49   102.26     0  03:12        0.00
  Node_03951           JUNCTION     2.15     4.55   102.24     0  03:13        0.00
  Node_03952           JUNCTION     2.13     4.60   102.19     0  03:13        0.00
  Node_03953           JUNCTION     2.01     4.54   102.11     0  03:14        0.00
  Node_03954           JUNCTION     2.84     5.37   101.95     0  03:14        0.00
  Node_03955           JUNCTION     1.74     4.25   101.74     0  03:14        0.00
  Node_04031           JUNCTION     0.40     1.03   102.26     0  02:56        0.00
  Node_04032           JUNCTION     1.92     3.91   102.26     0  03:05        0.00
  Node_04040           JUNCTION     0.72     1.74   102.28     0  02:20        0.00
  Node_04050           JUNCTION     0.40     1.44   102.40     0  03:54        0.00
  Node_04054           JUNCTION     0.24     1.29   102.43     0  02:45        0.00
  Node_04055           JUNCTION     0.39     1.51   102.32     0  02:35        0.00
  Node_04057           JUNCTION     0.42     1.60   101.91     0  02:21        0.00
  Node_04384           JUNCTION     1.97     4.14   101.72     0  03:11        0.00
  Node_04385           JUNCTION     1.70     3.85   101.76     0  03:13        0.00
  Node_04386           JUNCTION     1.70     3.84   101.78     0  03:11        0.00
  Node_04387           JUNCTION     1.71     3.83   101.80     0  03:04        0.00
  Node_04388           JUNCTION     1.71     3.81   101.82     0  03:13        0.00
  Node_04389           JUNCTION     0.46     1.46   101.82     0  03:13        0.00
  Node_04390           JUNCTION     1.71     3.81   101.82     0  03:09        0.00
  Node_04391           JUNCTION     1.71     3.77   101.84     0  03:07        0.00
  Node_04392           JUNCTION     1.83     3.88   101.84     0  03:07        0.00
  Node_04393           JUNCTION     1.71     3.74   101.85     0  03:10        0.00
  Node_04394           JUNCTION     0.73     2.20   101.85     0  03:08        0.00
  Node_04395           JUNCTION     1.71     3.70   101.85     0  03:04        0.00
  Node_04396           JUNCTION     1.69     3.65   101.85     0  03:04        0.00
  Node_04397           JUNCTION     0.61     1.96   101.85     0  03:09        0.00
  Node_04428           JUNCTION     1.71     3.64   101.85     0  03:10        0.00
  Node_04429           JUNCTION     1.70     3.60   101.85     0  03:11        0.00
  Node_04430           JUNCTION     1.69     3.57   101.85     0  03:11        0.00
  Node_04431           JUNCTION     1.47     3.28   101.85     0  03:13        0.00
  Node_04432           JUNCTION     1.38     3.16   101.84     0  03:10        0.00
  Node_04433           JUNCTION     1.20     2.96   101.84     0  03:14        0.00
  Node_04434           JUNCTION     1.50     3.25   101.84     0  03:09        0.00
  Node_04435           JUNCTION     1.35     3.05   101.82     0  03:09        0.00
  Node_04436           JUNCTION     1.75     3.42   101.82     0  03:01        0.00
  Node_04437           JUNCTION     1.88     3.51   101.80     0  03:10        0.00
  Node_04438           JUNCTION     2.19     3.80   101.81     0  03:09        0.00
  Node_04439           JUNCTION     1.25     2.84   101.82     0  03:08        0.00
  Node_04440           JUNCTION     1.24     2.81   101.82     0  03:14        0.00
  Node_04441           JUNCTION     0.97     2.49   101.82     0  03:08        0.00
  Node_04442           JUNCTION     1.31     2.86   101.83     0  03:05        0.00
  Node_04443           JUNCTION     1.18     2.69   101.83     0  02:55        0.00
  Node_04444           JUNCTION     1.17     2.66   101.83     0  03:04        0.00
  Node_04445           JUNCTION     1.11     2.58   101.85     0  02:57        0.00
  Node_04446           JUNCTION     1.08     2.52   101.85     0  03:04        0.00
  Node_04447           JUNCTION     1.03     2.42   101.86     0  03:15        0.00
  Node_04448           JUNCTION     1.05     2.43   101.88     0  02:49        0.00
  Node_04449           JUNCTION     1.07     2.43   101.89     0  03:14        0.00
  Node_04450           JUNCTION     1.23     2.58   101.91     0  02:59        0.00
  Node_04451           JUNCTION     1.05     2.38   101.92     0  02:17        0.00
  Node_04452           JUNCTION     0.78     2.12   101.94     0  02:17        0.00
  Node_04453           JUNCTION     0.58     1.72   101.94     0  02:18        0.00
  Node_04461           JUNCTION     1.01     2.29   101.91     0  02:17        0.00
  Node_04462           JUNCTION     1.01     2.29   101.94     0  02:17        0.00
  Node_04562           JUNCTION     0.89     2.46   102.05     0  02:18        0.00
  Node_04563           JUNCTION     1.21     2.92   102.04     0  02:18        0.00
  Node_04564           JUNCTION     1.01     2.68   102.07     0  02:18        0.00
  Node_04565           JUNCTION     1.02     2.72   102.08     0  02:18        0.00
  Node_04566           JUNCTION     1.16     2.88   102.07     0  02:18        0.00
  Node_04567           JUNCTION     1.11     2.83   102.05     0  02:18        0.00
  Node_04568           JUNCTION     1.12     2.83   102.02     0  03:02        0.00
  Node_04569           JUNCTION     1.27     3.04   102.01     0  02:42        0.00
  Node_04570           JUNCTION     0.83     2.28   102.01     0  02:18        0.00
  Node_04571           JUNCTION     1.27     2.99   101.92     0  02:18        0.00
  Node_04572           JUNCTION     2.66     4.43   101.96     0  03:00        0.00
  Node_04573           JUNCTION     2.33     4.12   101.96     0  03:15        0.00
  Node_04574           JUNCTION     2.62     3.66   101.96     0  02:18        0.00
  Node_04575           JUNCTION     2.82     4.65   101.96     0  02:59        0.00
  Node_04576           JUNCTION     1.44     3.31   101.96     0  02:53        0.00
  Node_04577           JUNCTION     1.47     3.36   101.94     0  02:59        0.00
  Node_04578           JUNCTION     1.52     3.42   101.93     0  03:13        0.00
  Node_04579           JUNCTION     1.59     3.50   101.91     0  03:14        0.00
  Node_04580           JUNCTION     0.75     1.98   101.76     0  02:17        0.00
  Node_04623           JUNCTION     0.62     2.10   101.76     0  03:13        0.00
  Node_04624           JUNCTION     0.85     2.38   101.84     0  02:49        0.00
  Node_04643           JUNCTION     0.72     1.98   101.89     0  03:14        0.00
  Node_04644           JUNCTION     0.71     1.99   101.83     0  03:05        0.00
  Node_04645           JUNCTION     0.89     2.05   101.65     0  02:17        0.00
  Node_04678           JUNCTION     0.71     2.13   101.85     0  03:08        0.00
  Node_04679           JUNCTION     0.42     1.58   101.76     0  03:13        0.00
  Node_04680           JUNCTION     1.74     3.91   101.68     0  03:13        0.00
  Node_04681           JUNCTION     1.71     3.90   101.62     0  03:13        0.00
  Node_04682           JUNCTION     0.30     0.95   101.96     0  02:58        0.00
  Node_04710           JUNCTION     0.67     1.99   101.98     0  05:52        0.00
  Node_04711           JUNCTION     0.72     2.58   102.57     0  05:59        0.00
  Node_04712           JUNCTION     0.74     2.61   102.62     0  02:25        0.00
  Node_04713           JUNCTION     0.70     2.58   102.63     0  04:27        0.00
  Node_04714           JUNCTION     0.74     2.60   102.65     0  04:17        0.00
  Node_04715           JUNCTION     0.70     2.52   102.61     0  04:17        0.00
  Node_04716           JUNCTION     0.70     2.46   102.59     0  04:28        0.00
  Node_04717           JUNCTION     0.36     1.28   101.58     0  02:26        0.00
  Node_04721           JUNCTION     0.59     1.60   101.95     0  03:14        0.00
  Node_04759           JUNCTION     0.64     1.78   101.96     0  03:08        0.00
  Node_04760           JUNCTION     0.42     1.60   101.06     0  03:14        0.00
  Node_04764           JUNCTION     0.66     1.59   101.51     0  02:17        0.00
  Node_04765           JUNCTION     0.54     1.50   101.92     0  02:17        0.00
  Node_04766           JUNCTION     0.87     2.25   102.02     0  02:18        0.00
  Node_04767           JUNCTION     0.84     2.26   102.09     0  02:18        0.00
  Node_04768           JUNCTION     0.90     2.35   102.01     0  02:18        0.00
  Node_04854           JUNCTION     0.38     1.41   101.84     0  03:09        0.00
  Node_04855           JUNCTION     1.01     2.04   101.96     0  02:18        0.00
  Node_05283           JUNCTION     1.81     3.62   102.24     0  03:13        0.00
  Node_05284           JUNCTION     1.78     3.58   102.24     0  02:20        0.00
  Node_05285           JUNCTION     1.73     3.47   102.22     0  01:55        0.00
  Node_05286           JUNCTION     1.71     3.42   102.22     0  01:55        0.00
  Node_05287           JUNCTION     1.69     3.42   102.27     0  01:56        0.00
  Node_05288           JUNCTION     1.68     3.41   102.28     0  01:56        0.00
  Node_05289           JUNCTION     1.22     2.70   102.22     0  01:55        0.00
  Node_05290           JUNCTION     1.67     3.40   102.29     0  01:56        0.00
  Node_05291           JUNCTION     1.50     3.19   102.39     0  01:56        0.00
  Node_05292           JUNCTION     1.47     3.17   102.41     0  02:28        0.00
  Node_05293           JUNCTION     1.46     3.15   102.41     0  01:56        0.00
  Node_05294           JUNCTION     1.43     3.11   102.42     0  01:56        0.00
  Node_05295           JUNCTION     1.47     3.15   102.42     0  03:07        0.00
  Node_05296           JUNCTION     1.45     3.12   102.43     0  02:19        0.00
  Node_05297           JUNCTION     1.25     2.79   102.30     0  01:56        0.00
  Node_05298           JUNCTION     1.41     3.05   102.44     0  02:52        0.00
  Node_05299           JUNCTION     1.40     3.03   102.43     0  02:22        0.00
  Node_05300           JUNCTION     1.37     2.98   102.43     0  03:01        0.00
  Node_05301           JUNCTION     1.33     2.93   102.42     0  02:18        0.00
  Node_05302           JUNCTION     1.34     2.93   102.44     0  02:42        0.00
  Node_05303           JUNCTION     1.31     2.88   102.43     0  02:19        0.00
[...]
  Link_02383                  2.65      2.65      2.80      0.01         0.01
  Link_02384                  2.80      2.80      2.83      0.01         0.01
  Link_02385                  2.84      2.84      2.85      0.01         0.20
  Link_02386                  2.30      2.30      2.34      0.01         0.01
  Link_02387                  2.86      2.86      2.97      0.01         0.01
  Link_02388                  2.98      2.98      3.02      0.01         0.01
  Link_02389                  2.46      2.46      2.82      0.01         0.01
  Link_02390                  3.04      3.04      3.09      0.01         0.02
  Link_02391                  3.09      3.09      3.36      0.01         0.01
  Link_02392                  2.45      2.45      2.58      0.01         0.01
  Link_02393                  3.37      3.37      3.41      1.02         1.02
  Link_05459                  2.66      2.66      3.35      0.03         0.01
  Link_05460                  3.61      3.61      3.61      0.01         0.01
  Link_05461                  3.65      3.65      3.66      0.81         0.85
  Link_05462                  3.68      3.68      3.69      1.58         1.56
  Link_05463                  3.69      3.69      3.69      2.17         1.87
  Link_05464                  2.68      2.68      2.69      0.01         0.55
  Link_05496                  4.21      4.24      4.21      4.33         4.21
  Link_05662                  1.58      1.58      1.66      0.01         0.01
  Link_05663                  2.41      2.41      2.73      0.01         0.01
  Link_05664                  4.04      4.04      4.05      0.01         0.01
  Link_05665                  4.12      4.24      4.12      4.70         4.12
  Link_05677                  4.04      4.05      4.04      2.88         2.70
  Link_05678                  2.42      2.42      2.43      0.01         0.01
  Link_05720                  4.00      4.01      4.04      3.54         3.21
  Link_05721                  3.92      3.93      3.94      1.68         1.64
  Link_05722                  2.29      2.29      2.33      0.01         0.01
  Link_05726                  3.54      3.54      3.62      0.01         0.01
  Link_05727                  3.54      3.54      3.55      0.01         0.04
  Link_05728                  3.10      3.10      3.14      0.01         0.01
  Link_05729                  2.68      2.69      2.69      2.81         1.80
  Link_05731                  0.88      0.89      0.88      1.15         0.88
  Link_05742                  2.35      2.35      2.39      0.01         0.01
  Link_05743                  3.41      3.41      3.48      0.01         0.01
  Link_05744                  4.03      4.03      4.27      0.02         0.02
  Link_05752                  2.23      2.23      2.24      1.75         0.01
  Link_05812                  3.49      3.49      3.67      0.01         0.01
  Link_05813                  3.16      3.16      3.20      0.01         0.01
  Link_05814                  2.92      2.92      2.96      0.01         0.01
  Link_05815                  2.84      2.84      2.87      0.01         0.01
  Link_05983                  1.96      1.96      2.00      0.01         0.01
  Link_05984                  1.58      1.58      1.64      0.01         0.01
  Link_07220                  2.13      2.13      2.17      0.05         0.09
  Link_07221                  2.17      2.17      2.18      1.41         1.30
  Link_07222                  2.18      2.18      2.23      0.63         0.66
  Link_07230                  2.23      2.23      2.31      0.52         0.48
  Link_07231                  2.27      2.31      2.27      1.96         1.59
  Link_07233                  2.45      2.61      2.45      2.88         2.45
  Link_07234                  2.51      2.55      2.51      3.18         2.51
  Link_07235                  2.64      2.64      2.67      1.50         1.46
  Link_07270                  1.14      1.14      1.41      0.01         0.01
  Link_07271                  1.41      1.41      1.71      0.01         0.03
  Link_07274                  1.15      1.15      1.15      0.01         0.09
  Link_07277                  1.82      1.83      1.99      0.02         0.06
  Link_07278                  2.02      2.04      2.06      0.04         0.09
  Link_07295                  2.05      2.06      2.10      0.05         0.07
  Link_07296                  2.10      2.10      2.12      0.26         0.17
  Link_07297                  2.12      2.12      2.13      1.37         1.30
  Link_07303                  2.02      2.02      2.03      0.01         0.06
  Link_07306                  1.50      1.50      1.89      0.01         0.01
  Link_07464                  2.99      2.99      3.01      0.01         0.01
  Link_07578                  2.32      2.32      2.33      0.01         0.01
  Link_07579                  2.56      2.56      2.64      0.01         0.01
  Link_07580                  2.50      2.50      2.56      0.01         0.01
  Link_07687                  3.14      3.14      3.18      0.01         0.01
  Link_08891                  2.06      2.06      2.30      0.01         0.01
  Link_08912                  1.80      1.80      2.45      0.01         0.01
  Link1_to_ChengXi            2.41      2.65      2.43      0.56         0.24
  Link2_to_ChengXi            2.22      4.52      2.22      4.67         2.22
  Link3_to_ChengXi            0.95      2.58      0.95      2.66         0.95
  
  
  ***************
  Pumping Summary
  ***************
  
  ---------------------------------------------------------------------------------------------------------
                                                  Min       Avg       Max     Total     Power    % Time Off
                        Percent   Number of      Flow      Flow      Flow    Volume     Usage    Pump Curve
  Pump                 Utilized   Start-Ups       CMS       CMS       CMS  10^6 ltr     Kw-hr    Low   High
  ---------------------------------------------------------------------------------------------------------
  Pump_ChengXi1           79.14         334      0.00      0.17      0.17     2.855     38.46    0.0    0.0
  Pump_ChengXi2           79.14         335      0.00      0.17      0.17     2.855     38.46    0.0    0.0
  Pump_ChengXi3           79.14         335      0.00      0.17      0.17     2.855     38.46    0.0    0.0
  Pump_ChengXi4           79.14         335      0.00      0.17      0.17     2.855     38.46    0.0    0.0
  Pump_LaoDongLu1        100.00           0      0.00      0.03      0.03     0.554      8.33    0.0    0.0
  Pump_LaoDongLu2        100.00           1      0.00      0.03      0.03     0.554      8.33    0.0    0.0
  Pump_LaoDongLu3        100.00           1      0.00      0.03      0.03     0.554      8.33    0.0    0.0
  outfallpump             98.13          77      0.00      0.38      0.45     8.116    167.90    0.0    0.0
  
  
  ***************************
  Link Pollutant Load Summary
  ***************************
  
  ----------------------------------
                                 COD
  Link                            kg
  ----------------------------------
  Link_01146                  42.854
  Link_01147                  57.955
  Link_01148                  72.932
  Link_01149                  84.276
  Link_01150                  98.896
  Link_01151                  72.685
  Link_01152                  64.474
  Link_01274                  16.705
  Link_01275                  31.426
  Link_01276                  66.950
  Link_01292                  23.198
  Link_01294                  96.134
  Link_01295                 110.680
  Link_01296                 125.501
  Link_01297                 160.208
  Link_01298                  16.469
  Link_01299                 191.529
  Link_01300                 206.303
  Link_01301                 221.080
  Link_01302                  16.418
  Link_01312                  20.029
  Link_01313                 284.151
  Link_01314                 293.413
  Link_01315                 307.962
  Link_01316                 323.067
  Link_01317                 338.198
  Link_01318                 353.733
  Link_01319                 369.370
  Link_01320                 425.712
  Link_01323                 253.250
  Link_01324                  18.460
  Link_01325                 285.562
  Link_01326                 300.716
  Link_01327                 197.562
  Link_01328                  22.164
  Link_01329                 220.420
  Link_01330                 224.409
  Link_01331                 230.426
  Link_01332                 196.519
  Link_01333                  18.644
  Link_01334                 229.481
  Link_01335                  19.733
  Link_01336                 263.818
  Link_01337                 153.523
  Link_01338                  18.625
  Link_01339                 128.960
  Link_01340                  13.337
  Link_01341                 128.098
  Link_01342                  18.503
  Link_01343                 150.404
  Link_01344                  27.354
  Link_01345                 181.607
  Link_01346                 193.462
  Link_01347                  45.736
  Link_01348                 178.245
  Link_01349                  27.493
  Link_01350                 189.955
  Link_01351                  18.041
  Link_01352                 211.180
  Link_01556                  19.164
  Link_01557                  36.460
  Link_01558                2111.714
  Link_01559                  39.387
  Link_01560                2096.852
  Link_01561                2167.746
  Link_01562                2183.882
  Link_01563                2199.370
  Link_01564                  15.291
  Link_01565                 129.605
  Link_01566                   9.447
  Link_01567                  18.724
  Link_01568                 153.991
  Link_01569                  37.332
  Link_01570                 177.766
  Link_01571                 134.206
  Link_01572                 208.831
  Link_01573                 152.773
  Link_01574                 136.489
  Link_01575                  19.494
  Link_01576                 101.309
  Link_01577                  66.286
  Link_01578                  50.554
  Link_01579                  18.807
  Link_01580                   7.966
  Link_01581                  12.417
  Link_01582                   7.958
  Link_01731                  31.086
  Link_01732                  56.432
  Link_01733                  74.733
  Link_01734                  25.184
  Link_01735                  19.384
  Link_01751                 133.898
  Link_01752                 146.361
  Link_01753                 174.733
  Link_01754                 187.709
  Link_01755                 202.445
  Link_01756                  16.465
  Link_01757                 244.711
  Link_01758                  17.760
  Link_01759                  17.905
  Link_01760                 278.593
  Link_01761                 288.097
  Link_01762                 298.151
  Link_01763                  24.147
  Link_01764                 322.971
  Link_01765                 339.860
  Link_01766                 345.482
  Link_01767                 400.708
  Link_01768                 402.058
  Link_01769                 405.080
  Link_01770                 408.244
  Link_01771                 411.440
  Link_01772                  37.216
  Link_01773                 432.240
  Link_01774                  39.273
  Link_01775                 262.629
  Link_01776                 241.721
  Link_01777                 222.756
  Link_01778                 365.755
  Link_01779                 177.394
  Link_01780                 355.592
  Link_01781                  73.614
  Link_01782                 472.156
  Link_01783                  17.940
  Link_01784                 487.180
  Link_01785                 495.703
  Link_01786                  68.079
  Link_01787                  39.560
  Link_01788                 585.937
  Link_01789                 596.460
  Link_01790                  23.421
  Link_01791                  23.022
  Link_01792                  21.871
  Link_01793                 662.364
  Link_01794                 678.401
  Link_01795                 694.252
  Link_01796                 709.854
  Link_01797                 724.099
  Link_01798                1263.835
  Link_01799                1251.555
  Link_01800                1277.234
  Link_01801                 787.160
  Link_01802                1182.002
  Link_01803                1238.853
  Link_01804                1043.317
  Link_01805                1028.797
  Link_01806                1014.324
  Link_01807                 999.284
  Link_01808                  21.804
  Link_01809                 962.090
  Link_01810                 931.616
  Link_01811                  14.686
  Link_01812                  59.453
  Link_01813                  50.248
  Link_01814                 876.427
  Link_01815                 861.661
  Link_01816                 829.814
  Link_01817                  16.374
  Link_01818                 781.451
  Link_01819                 751.445
  Link_01820                  18.577
  Link_01821                  32.296
  Link_01822                   7.958
  Link_01823                 286.352
  Link_01824                 281.552
  Link_01825                  72.952
  Link_01826                  77.501
  Link_01827                   4.406
  Link_01828                  86.507
  Link_01829                   7.950
  Link_01830                  99.117
  Link_01831                   4.405
  Link_01832                 108.138
  Link_01833                 112.699
  Link_01834                 121.825
  Link_01835                   4.405
  Link_01836                  59.879
  Link_01837                  22.275
  Link_01838                  43.421
  Link_01839                  55.227
  Link_01840                  50.758
  Link_01841                  46.313
  Link_01842                  35.690
  Link_01843                  26.724
  Link_01844                  22.268
  Link_02074                  18.163
  Link_02075                 151.188
  Link_02076                 158.134
  Link_02077                  33.091
  Link_02078                 197.303
  Link_02079                  20.098
  Link_02080                 232.477
  Link_02081                 247.428
  Link_02082                 262.151
  Link_02083                  20.176
  Link_02084                  18.513
  Link_02085                 547.294
  Link_02086                 549.555
  Link_02087                 553.293
  Link_02088                 558.190
  Link_02089                 563.407
  Link_02090                 657.592
  Link_02091                 642.746
  Link_02092                 627.967
  Link_02093                  18.131
  Link_02094                 580.251
  Link_02095                 565.548
  Link_02096                 608.573
  Link_02097                  25.223
  Link_02098                 107.997
  Link_02099                 593.891
  Link_02100                 579.324
  Link_02101                  69.496
  Link_02102                 598.644
  Link_02103                 560.374
  Link_02104                  36.438
  Link_02105                 454.912
  Link_02106                  21.952
  Link_02107                  14.762
  Link_02108                 479.851
  Link_02109                 464.325
  Link_02110                 417.761
  Link_02111                 272.277
  Link_02112                  23.508
  Link_02113                 197.382
  Link_02114                  62.331
  Link_02115                  57.779
  Link_02116                  53.305
  Link_02117                  48.876
  Link_02118                  44.423
  Link_02123                   7.952
  Link_02124                  12.387
  Link_02125                  16.828
  Link_02126                  21.252
  Link_02127                  39.988
  Link_02128                  35.533
  Link_02129                  31.116
  Link_02130                  26.687
  Link_02131                  22.224
  Link_02132                  17.755
  Link_02133                  13.286
  Link_02134                 201.965
  Link_02135                 206.509
  Link_02136                 219.035
  Link_02137                   7.950
  Link_02138                 254.341
  Link_02139                 249.769
  Link_02140                 245.131
  Link_02141                 240.602
  Link_02142                 236.007
  Link_02143                 223.558
  Link_02383                  14.864
  Link_02384                  15.237
  Link_02385                  25.213
  Link_02386                  32.393
  Link_02387                  72.215
  Link_02388                  86.909
  Link_02389                  25.113
  Link_02390                 101.646
  Link_02391                 140.880
  Link_02392                  48.019
  Link_02393                 203.059
  Link_05459                 121.513
  Link_05460                 269.558
  Link_05461                 331.734
  Link_05462                 459.133
  Link_05463                 646.473
  Link_05464                  53.298
  Link_05496                2079.691
  Link_05662                  81.040
  Link_05663                  17.385
  Link_05664                  60.646
  Link_05665                 441.238
  Link_05677                 264.604
  Link_05678                  25.149
  Link_05720                1167.745
  Link_05721                 915.898
  Link_05722                  23.477
  Link_05723                 130.451
  Link_05725                  25.696
  Link_05726                 546.467
  Link_05727                  16.501
  Link_05728                 594.930
  Link_05729                 613.250
  Link_05730                 413.079
  Link_05731                 276.747
  Link_05732                 267.779
  Link_05742                  32.549
  Link_05743                 152.497
  Link_05744                 276.740
  Link_05752                 332.141
  Link_05753                   6.187
  Link_05754                  31.200
  Link_05791                   7.950
  Link_05812                 266.980
  Link_05813                 169.692
  Link_05814                 127.494
  Link_05815                 165.878
  Link_05816                  29.273
  Link_05817                  41.781
  Link_05818                  13.291
  Link_05983                  41.718
  Link_05984                  27.036
  Link_06039                   4.400
  Link_07220                 197.886
  Link_07221                 212.726
  Link_07222                 179.830
  Link_07230                 194.769
  Link_07231                 209.553
  Link_07233                 451.789
  Link_07234                 466.638
  Link_07235                 227.641
  Link_07270                  41.173
  Link_07271                  68.111
  Link_07274                  25.781
  Link_07277                  95.923
  Link_07278                 119.507
  Link_07295                 126.796
  Link_07296                 144.892
  Link_07297                 183.115
  Link_07303                  18.378
  Link_07306                  85.232
  Link_07321                  13.282
  Link_07464                  29.070
  Link_07578                  27.067
  Link_07579                 545.594
  Link_07580                 506.555
  Link_07687                  27.308
  Link_07865                  13.275
  Link_08891                  20.057
  Link_08912                  41.262
  Link1_to_ChengXi          2215.195
  Link2_to_ChengXi           460.612
  Link3_to_ChengXi           482.241
  Link_to_LaoDongLu          422.330
  Pump_ChengXi1              815.889
  Pump_ChengXi2              815.889
  Pump_ChengXi3              815.889
  Pump_ChengXi4              815.889
  Pump_LaoDongLu1            149.633
  Pump_LaoDongLu2            149.633
  Pump_LaoDongLu3            149.633
  outfallpump               2340.091
  

  Analysis begun on:  Sat Sep  4 16:45:21 2021
  Analysis ended on:  Sat Sep  4 16:45:23 2021
  Total elapsed time: 00:00:02