
  EPA STORM WATER MANAGEMENT MODEL - VERSION 5.1 (Build 5.3.0.dev0)
  --------------------------------------------------------------

  WARNING 04: minimum elevation drop used for Conduit Link_01776
  WARNING 04: minimum elevation drop used for Conduit Link_01779
  WARNING 04: minimum elevation drop used for Conduit Link_07234
  WARNING 02: maximum depth increased for Node Node_06087
  
  *********************************************************
  NOTE: The summary statistics displayed in this report are
  based on results found at every computational time step,  
  not just on results from each reporting time step.
  *********************************************************
  
  ****************
  Analysis Options
  ****************
  Flow Units ............... CMS
  Process Models:
    Rainfall/Runoff ........ YES
    RDII ................... NO
    Snowmelt ............... NO
    Groundwater ............ NO
    Flow Routing ........... YES
    Ponding Allowed ........ YES
    Water Quality .......... YES
  Infiltration Method ...... HORTON
  Flow Routing Method ...... DYNWAVE
  Surcharge Method ......... EXTRAN
  Starting Date ............ 01/02/2011 00:00:00
  Ending Date .............. 01/02/2011 06:00:00
  Antecedent Dry Days ...... 0.0
  Report Time Step ......... 00:15:00
  Wet Time Step ............ 00:05:00
  Dry Time Step ............ 01:00:00
  Routing Time Step ........ 60.00 sec
  Variable Time Step ....... YES
  Maximum Trials ........... 8
  Number of Threads ........ 4
  Head Tolerance ........... 0.001500 m
  
  
  **************************        Volume         Depth
  Runoff Quantity Continuity     hectare-m            mm
  **************************     ---------       -------
  Total Precipitation ......         0.858        30.000
  Evaporation Loss .........         0.000         0.000
  Infiltration Loss ........         0.050         1.764
  Surface Runoff ...........         0.810        28.308
  Final Storage ............         0.000         0.009
  Continuity Error (%) .....        -0.272
  
  
  **************************           COD
  Runoff Quality Continuity             kg
  **************************    ----------
  Initial Buildup ..........         0.000
  Surface Buildup ..........         0.000
  Wet Deposition ...........      2256.553
  Sweeping Removal .........         0.000
  Infiltration Loss ........       132.697
  BMP Removal ..............         0.000
  Surface Runoff ...........      2129.283
  Remaining Buildup ........         0.706
  Continuity Error (%) .....        -0.272
  
  
  **************************        Volume        Volume
  Flow Routing Continuity        hectare-m      10^6 ltr
  **************************     ---------     ---------
  Dry Weather Inflow .......         0.153         1.529
  Wet Weather Inflow .......         0.810         8.096
  Groundwater Inflow .......         0.000         0.000
  RDII Inflow ..............         0.000         0.000
  External Inflow ..........         0.000         0.000
  External Outflow .........         0.739         7.395
  Flooding Loss ............         0.252         2.521
  Evaporation Loss .........         0.000         0.000
  Exfiltration Loss ........         0.000         0.000
  Initial Stored Volume ....         0.077         0.773
  Final Stored Volume ......         0.063         0.635
  Continuity Error (%) .....        -1.469
  
  
  **************************           COD
  Quality Routing Continuity            kg
  **************************    ----------
  Dry Weather Inflow .......       845.606
  Wet Weather Inflow .......      2129.176
  Groundwater Inflow .......         0.000
  RDII Inflow ..............         0.000
  External Inflow ..........         0.000
  External Outflow .........      2328.045
  Flooding Loss ............       725.860
  Exfiltration Loss ........         0.000
  Mass Reacted .............         0.000
  Initial Stored Mass ......       427.257
  Final Stored Mass ........       239.730
  Continuity Error (%) .....         3.186
  
  
  ***************************
  Time-Step Critical Elements
  ***************************
  Link Link_01778 (92.85%)
  Link Link_01558 (5.14%)
  Link Link_01780 (1.41%)
  
  
  ********************************
  Highest Flow Instability Indexes
  ********************************
  Link Link_01558 (55)
  Link Link_01778 (49)
  Link Link_01561 (37)
  Link Link_01777 (36)
  Link Link_01315 (32)
  
  
  *************************
  Routing Time Step Summary
  *************************
  Minimum Time Step           :     5.00 sec
  Average Time Step           :     5.00 sec
  Maximum Time Step           :     5.00 sec
  Percent in Steady State     :     0.00
  Average Iterations per Step :     4.93
  Percent Not Converging      :    27.04
  
  
  ***************************
  Subcatchment Runoff Summary
  ***************************
  
  ------------------------------------------------------------------------------------------------------------------------------
                            Total      Total      Total      Total     Imperv       Perv      Total       Total     Peak  Runoff
                           Precip      Runon       Evap      Infil     Runoff     Runoff     Runoff      Runoff   Runoff   Coeff
  Subcatchment                 mm         mm         mm         mm         mm         mm         mm    10^6 ltr      CMS
  ------------------------------------------------------------------------------------------------------------------------------
  2707                      30.00       0.00       0.00       1.77       7.50      20.80      28.30        0.03     0.00   0.943
  2708                      30.00       0.00       0.00       1.77       7.50      20.80      28.30        0.03     0.00   0.943
  2709                      30.00       0.00       0.00       1.77       7.50      20.80      28.30        0.03     0.00   0.943
  2710                      30.00       0.00       0.00       1.77       7.50      20.80      28.30        0.03     0.00   0.943
  2712                      30.00       0.00       0.00       1.77       7.50      20.80      28.30        0.03     0.00   0.943
  2713                      30.00       0.00       0.00       1.77       7.50      20.80      28.30        0.03     0.00   0.943
  2714                      30.00       0.00       0.00       1.77       7.50      20.80      28.30        0.03     0.00   0.943
  2715                      30.00       0.00       0.00       1.77       7.50      20.80      28.30        0.03     0.00   0.943
  2716                      30.00       0.00       0.00       1.77       7.50      20.80      28.30        0.03     0.00   0.943
  2717                      30.00       0.00       0.00       1.77       7.50      20.80      28.30        0.03     0.00   0.943
  2718                      30.00       0.00       0.00       1.77       7.50      20.80      28.30        0.03     0.00   0.943
  2719                      30.00       0.00       0.00       1.77       7.50      20.80      28.30        0.03     0.00   0.943
  2721                      30.00       0.00       0.00       1.77       7.50      20.80      28.30        0.03     0.00   0.943
  2722                      30.00       0.00       0.00       1.77       7.50      20.80      28.30        0.03     0.00   0.943
  2723                      30.00       0.00       0.00       1.77       7.50      20.80      28.30        0.03     0.00   0.943
  2724                      30.00       0.00       0.00       1.77       7.50      20.80      28.30        0.03     0.00   0.943
  2725                      30.00       0.00       0.00       1.77       7.50      20.80      28.30        0.03     0.00   0.943
  2726                      30.00       0.00       0.00       1.77       7.50      20.80      28.30        0.03     0.00   0.943
  2727                      30.00       0.00       0.00       1.77       7.50      20.80      28.30        0.03     0.00   0.943
  2728                      30.00       0.00       0.00       1.77       7.50      20.80      28.30        0.03     0.00   0.943
  2729                      30.00       0.00       0.00       1.77       7.50      20.80      28.30        0.03     0.00   0.943
  2730                      30.00       0.00       0.00       1.77       7.50      20.80      28.30        0.03     0.00   0.943
  2731                      30.00       0.00       0.00       1.77       7.50      20.80      28.30        0.03     0.00   0.943
  2732                      30.00       0.00       0.00       1.77       7.50      20.80      28.30        0.03     0.00   0.943
  2733                      30.00       0.00       0.00       1.77       7.50      20.80      28.30        0.03     0.00   0.943
  2734                      30.00       0.00       0.00       1.77       7.50      20.80      28.30        0.03     0.00   0.943
  2735                      30.00       0.00       0.00       1.77       7.50      20.80      28.30        0.03     0.00   0.943
  2736                      30.00       0.00       0.00       1.77       7.50      20.80      28.30        0.03     0.00   0.943
  2737                      30.00       0.00       0.00       1.77       7.50      20.80      28.30        0.03     0.00   0.943
  2738                      30.00       0.00       0.00       1.77       7.50      20.80      28.30        0.03     0.00   0.943
  2739                      30.00       0.00       0.00       1.77       7.50      20.80      28.30        0.03     0.00   0.943
  2740                      30.00       0.00       0.00       1.77       7.50      20.80      28.30        0.03     0.00   0.943
  2741                      30.00       0.00       0.00       1.77       7.50      20.80      28.30        0.03     0.00   0.943
  2742                      30.00       0.00       0.00       1.77       7.50      20.80      28.30        0.03     0.00   0.943
  2743                      30.00       0.00       0.00       1.77       7.50      20.80      28.30        0.03     0.00   0.943
  2744                      30.00       0.00       0.00       1.77       7.50      20.80      28.30        0.03     0.00   0.943
  2745                      30.00       0.00       0.00       1.77       7.50      20.80      28.30        0.03     0.00   0.943
  2746                      30.00       0.00       0.00       1.77       7.50      20.80      28.30        0.03     0.00   0.943
  2747                      30.00       0.00       0.00       1.77       7.50      20.80      28.30        0.03     0.00   0.943
  2748                      30.00       0.00       0.00       1.77       7.50      20.80      28.30        0.03     0.00   0.943
  2749                      30.00       0.00       0.00       1.77       7.50      20.80      28.30        0.03     0.00   0.943
  2750                      30.00       0.00       0.00       1.77       7.50      20.80      28.30        0.03     0.00   0.943
  2751                      30.00       0.00       0.00       1.77       7.50      20.80      28.30        0.03     0.00   0.943
  2752                      30.00       0.00       0.00       1.77       7.50      20.80      28.30        0.03     0.00   0.943
  2753                      30.00       0.00       0.00       1.77       7.50      20.80      28.30        0.03     0.00   0.943
  2754                      30.00       0.00       0.00       1.77       7.50      20.80      28.30        0.03     0.00   0.943
  2755                      30.00       0.00       0.00       1.77       7.50      20.80      28.30        0.03     0.00   0.943
  2756                      30.00       0.00       0.00       1.77       7.50      20.80      28.30        0.03     0.00   0.943
  2964                      30.00       0.00       0.00       1.77       7.50      20.80      28.30        0.03     0.00   0.943
  2969                      30.00       0.00       0.00       1.77       7.50      20.80      28.30        0.03     0.00   0.943
  2970                      30.00       0.00       0.00       1.77       7.50      20.80      28.30        0.03     0.00   0.943
  2974                      30.00       0.00       0.00       1.77       7.50      20.80      28.30        0.03     0.00   0.943
  2975                      30.00       0.00       0.00       1.77       7.50      20.80      28.30        0.03     0.00   0.943
  2976                      30.00       0.00       0.00       1.77       7.50      20.80      28.30        0.03     0.00   0.943
  2977                      30.00       0.00       0.00       1.77       7.50      20.80      28.30        0.03     0.00   0.943
  2978                      30.00       0.00       0.00       1.77       7.50      20.80      28.30        0.03     0.00   0.943
  2979                      30.00       0.00       0.00       1.77       7.50      20.80      28.30        0.03     0.00   0.943
  2980                      30.00       0.00       0.00       1.77       7.50      20.80      28.30        0.03     0.00   0.943
  2981                      30.00       0.00       0.00       1.77       7.50      20.80      28.30        0.03     0.00   0.943
  2982                      30.00       0.00       0.00       1.77       7.50      20.80      28.30        0.03     0.00   0.943
  2984                      30.00       0.00       0.00       1.77       7.50      20.80      28.30        0.03     0.00   0.943
  2985                      30.00       0.00       0.00       1.77       7.50      20.80      28.30        0.03     0.00   0.943
  3925                      30.00       0.00       0.00       1.77       7.50      20.80      28.30        0.03     0.00   0.943
  3926                      30.00       0.00       0.00       1.77       7.50      20.80      28.30        0.03     0.00   0.943
  3927                      30.00       0.00       0.00       1.77       7.50      20.80      28.30        0.03     0.00   0.943
  3928                      30.00       0.00       0.00       1.77       7.50      20.80      28.30        0.03     0.00   0.943
  3929                      30.00       0.00       0.00       1.77       7.50      20.80      28.30        0.03     0.00   0.943
  3930                      30.00       0.00       0.00       1.77       7.50      20.80      28.30        0.03     0.00   0.943
  3931                      30.00       0.00       0.00       1.77       7.50      20.80      28.30        0.03     0.00   0.943
  3932                      30.00       0.00       0.00       1.77       7.50      20.80      28.30        0.03     0.00   0.943
  3933                      30.00       0.00       0.00       1.77       7.50      20.80      28.30        0.03     0.00   0.943
  3934                      30.00       0.00       0.00       1.77       7.50      20.80      28.30        0.03     0.00   0.943
  3935                      30.00       0.00       0.00       1.77       7.50      20.80      28.30        0.03     0.00   0.943
  3936                      30.00       0.00       0.00       1.77       7.50      20.80      28.30        0.03     0.00   0.943
  3937                      30.00       0.00       0.00       1.77       7.50      20.80      28.30        0.03     0.00   0.943
  3938                      30.00       0.00       0.00       1.77       7.50      20.80      28.30        0.03     0.00   0.943
  3939                      30.00       0.00       0.00       1.77       7.50      20.80      28.30        0.03     0.00   0.943
  3940                      30.00       0.00       0.00       1.77       7.50      20.80      28.30        0.03     0.00   0.943
  3941                      30.00       0.00       0.00       1.77       7.50      20.80      28.30        0.03     0.00   0.943
  3942                      30.00       0.00       0.00       1.77       7.50      20.80      28.30        0.03     0.00   0.943
  3943                      30.00       0.00       0.00       1.77       7.50      20.80      28.30        0.03     0.00   0.943
  3944                      30.00       0.00       0.00       1.77       7.50      20.80      28.30        0.03     0.00   0.943
  3945                      30.00       0.00       0.00       1.77       7.50      20.80      28.30        0.03     0.00   0.943
  3946                      30.00       0.00       0.00       1.77       7.50      20.80      28.30        0.03     0.00   0.943
  3947                      30.00       0.00       0.00       1.77       7.50      20.80      28.30        0.03     0.00   0.943
  3948                      30.00       0.00       0.00       1.77       7.50      20.80      28.30        0.03     0.00   0.943
  3949                      30.00       0.00       0.00       1.77       7.50      20.80      28.30        0.03     0.00   0.943
  3950                      30.00       0.00       0.00       1.77       7.50      20.80      28.30        0.03     0.00   0.943
  3951                      30.00       0.00       0.00       1.77       7.50      20.80      28.30        0.03     0.00   0.943
  3952                      30.00       0.00       0.00       1.77       7.50      20.80      28.30        0.03     0.00   0.943
  3953                      30.00       0.00       0.00       1.77       7.50      20.80      28.30        0.03     0.00   0.943
  3954                      30.00       0.00       0.00       1.77       7.50      20.80      28.30        0.03     0.00   0.943
  3955                      30.00       0.00       0.00       1.77       7.50      20.80      28.30        0.03     0.00   0.943
  3956                      30.00       0.00       0.00       1.77       7.50      20.80      28.30        0.03     0.00   0.943
  4032                      30.00       0.00       0.00       1.77       7.50      20.80      28.30        0.03     0.00   0.943
  4033                      30.00       0.00       0.00       1.77       7.50      20.80      28.30        0.03     0.00   0.943
  4041                      30.00       0.00       0.00       1.77       7.50      20.80      28.30        0.03     0.00   0.943
  4051                      30.00       0.00       0.00       1.77       7.50      20.80      28.30        0.03     0.00   0.943
  4055                      30.00       0.00       0.00       1.77       7.50      20.80      28.30        0.03     0.00   0.943
  4056                      30.00       0.00       0.00       1.77       7.50      20.80      28.30        0.03     0.00   0.943
  4058                      30.00       0.00       0.00       1.77       7.50      20.80      28.30        0.03     0.00   0.943
  4385                      30.00       0.00       0.00       1.77       7.50      20.80      28.30        0.03     0.00   0.943
  4386                      30.00       0.00       0.00       1.77       7.50      20.80      28.30        0.03     0.00   0.943
  4387                      30.00       0.00       0.00       1.77       7.50      20.80      28.30        0.03     0.00   0.943
  4388                      30.00       0.00       0.00       1.77       7.50      20.80      28.30        0.03     0.00   0.943
  4389                      30.00       0.00       0.00       1.77       7.50      20.80      28.30        0.03     0.00   0.943
  4390                      30.00       0.00       0.00       1.77       7.50      20.80      28.30        0.03     0.00   0.943
  4391                      30.00       0.00       0.00       1.77       7.50      20.80      28.30        0.03     0.00   0.943
  4392                      30.00       0.00       0.00       1.77       7.50      20.80      28.30        0.03     0.00   0.943
  4393                      30.00       0.00       0.00       1.77       7.50      20.80      28.30        0.03     0.00   0.943
  4394                      30.00       0.00       0.00       1.77       7.50      20.80      28.30        0.03     0.00   0.943
  4395                      30.00       0.00       0.00       1.77       7.50      20.80      28.30        0.03     0.00   0.943
  4396                      30.00       0.00       0.00       1.77       7.50      20.80      28.30        0.03     0.00   0.943
  4397                      30.00       0.00       0.00       1.77       7.50      20.80      28.30        0.03     0.00   0.943
  4398                      30.00       0.00       0.00       1.77       7.50      20.80      28.30        0.03     0.00   0.943
  4429                      30.00       0.00       0.00       1.77       7.50      20.80      28.30        0.03     0.00   0.943
  4430                      30.00       0.00       0.00       1.77       7.50      20.80      28.30        0.03     0.00   0.943
  4431                      30.00       0.00       0.00       1.77       7.50      20.80      28.30        0.03     0.00   0.943
  4432                      30.00       0.00       0.00       1.77       7.50      20.80      28.30        0.03     0.00   0.943
  4433                      30.00       0.00       0.00       1.77       7.50      20.80      28.30        0.03     0.00   0.943
  4434                      30.00       0.00       0.00       1.77       7.50      20.80      28.30        0.03     0.00   0.943
  4435                      30.00       0.00       0.00       1.77       7.50      20.80      28.30        0.03     0.00   0.943
  4436                      30.00       0.00       0.00       1.77       7.50      20.80      28.30        0.03     0.00   0.943
  4437                      30.00       0.00       0.00       1.77       7.50      20.80      28.30        0.03     0.00   0.943
  4438                      30.00       0.00       0.00       1.77       7.50      20.80      28.30        0.03     0.00   0.943
  4439                      30.00       0.00       0.00       1.77       7.50      20.80      28.30        0.03     0.00   0.943
  4440                      30.00       0.00       0.00       1.77       7.50      20.80      28.30        0.03     0.00   0.943
  4441                      30.00       0.00       0.00       1.77       7.50      20.80      28.30        0.03     0.00   0.943
  4442                      30.00       0.00       0.00       1.77       7.50      20.80      28.30        0.03     0.00   0.943
  4443                      30.00       0.00       0.00       1.77       7.50      20.80      28.30        0.03     0.00   0.943
  4444                      30.00       0.00       0.00       1.77       7.50      20.80      28.30        0.03     0.00   0.943
  4445                      30.00       0.00       0.00       1.77       7.50      20.80      28.30        0.03     0.00   0.943
  4446                      30.00       0.00       0.00       1.77       7.50      20.80      28.30        0.03     0.00   0.943
  4447                      30.00       0.00       0.00       1.77       7.50      20.80      28.30        0.03     0.00   0.943
  4448                      30.00       0.00       0.00       1.77       7.50      20.80      28.30        0.03     0.00   0.943
  4449                      30.00       0.00       0.00       1.77       7.50      20.80      28.30        0.03     0.00   0.943
  4450                      30.00       0.00       0.00       1.77       7.50      20.80      28.30        0.03     0.00   0.943
  4451                      30.00       0.00       0.00       1.77       7.50      20.80      28.30        0.03     0.00   0.943
  4452                      30.00       0.00       0.00       1.77       7.50      20.80      28.30        0.03     0.00   0.943
  4453                      30.00       0.00       0.00       1.77       7.50      20.80      28.30        0.03     0.00   0.943
  4454                      30.00       0.00       0.00       1.77       7.50      20.80      28.30        0.03     0.00   0.943
  4462                      30.00       0.00       0.00       1.77       7.50      20.80      28.30        0.03     0.00   0.943
  4463                      30.00       0.00       0.00       1.77       7.50      20.80      28.30        0.03     0.00   0.943
  4563                      30.00       0.00       0.00       1.77       7.50      20.80      28.30        0.03     0.00   0.943
  4564                      30.00       0.00       0.00       1.77       7.50      20.80      28.30        0.03     0.00   0.943
  4565                      30.00       0.00       0.00       1.77       7.50      20.80      28.30        0.03     0.00   0.943
  4566                      30.00       0.00       0.00       1.77       7.50      20.80      28.30        0.03     0.00   0.943
  4567                      30.00       0.00       0.00       1.77       7.50      20.80      28.30        0.03     0.00   0.943
  4568                      30.00       0.00       0.00       1.77       7.50      20.80      28.30        0.03     0.00   0.943
  4569                      30.00       0.00       0.00       1.77       7.50      20.80      28.30        0.03     0.00   0.943
  4570                      30.00       0.00       0.00       1.77       7.50      20.80      28.30        0.03     0.00   0.943
  4571                      30.00       0.00       0.00       1.77       7.50      20.80      28.30        0.03     0.00   0.943
  4572                      30.00       0.00       0.00       1.77       7.50      20.80      28.30        0.03     0.00   0.943
  4573                      30.00       0.00       0.00       1.77       7.50      20.80      28.30        0.03     0.00   0.943
  4574                      30.00       0.00       0.00       1.77       7.50      20.80      28.30        0.03     0.00   0.943
  4575                      30.00       0.00       0.00       1.77       7.50      20.80      28.30        0.03     0.00   0.943
  4576                      30.00       0.00       0.00       1.77       7.50      20.80      28.30        0.03     0.00   0.943
  4577                      30.00       0.00       0.00       1.77       7.50      20.80      28.30        0.03     0.00   0.943
  4578                      30.00       0.00       0.00       1.77       7.50      20.80      28.30        0.03     0.00   0.943
  4579                      30.00       0.00       0.00       1.77       7.50      20.80      28.30        0.03     0.00   0.943
  4580                      30.00       0.00       0.00       1.77       7.50      20.80      28.30        0.03     0.00   0.943
  4581                      30.00       0.00       0.00       1.77       7.50      20.80      28.30        0.03     0.00   0.943
  4624                      30.00       0.00       0.00       1.77       7.50      20.80      28.30        0.03     0.00   0.943
  4625                      30.00       0.00       0.00       1.77       7.50      20.80      28.30        0.03     0.00   0.943
  4644                      30.00       0.00       0.00       1.77       7.50      20.80      28.30        0.03     0.00   0.943
  4645                      30.00       0.00       0.00       1.77       7.50      20.80      28.30        0.03     0.00   0.943
  4646                      30.00       0.00       0.00       1.77       7.50      20.80      28.30        0.03     0.00   0.943
  4679                      30.00       0.00       0.00       1.77       7.50      20.80      28.30        0.03     0.00   0.943
  4680                      30.00       0.00       0.00       1.77       7.50      20.80      28.30        0.03     0.00   0.943
  4681                      30.00       0.00       0.00       1.77       7.50      20.80      28.30        0.03     0.00   0.943
  4682                      30.00       0.00       0.00       1.77       7.50      20.80      28.30        0.03     0.00   0.943
  4683                      30.00       0.00       0.00       1.77       7.50      20.80      28.30        0.03     0.00   0.943
  4711                      30.00       0.00       0.00       1.77       7.50      20.80      28.30        0.03     0.00   0.943
  4712                      30.00       0.00       0.00       1.77       7.50      20.80      28.30        0.03     0.00   0.943
  4713                      30.00       0.00       0.00       1.77       7.50      20.80      28.30        0.03     0.00   0.943
  4714                      30.00       0.00       0.00       1.77       7.50      20.80      28.30        0.03     0.00   0.943
  4715                      30.00       0.00       0.00       1.77       7.50      20.80      28.30        0.03     0.00   0.943
  4716                      30.00       0.00       0.00       1.77       7.50      20.80      28.30        0.03     0.00   0.943
  4717                      30.00       0.00       0.00       1.77       7.50      20.80      28.30        0.03     0.00   0.943
  4718                      30.00       0.00       0.00       1.77       7.50      20.80      28.30        0.03     0.00   0.943
  4722                      30.00       0.00       0.00       1.77       7.50      20.80      28.30        0.03     0.00   0.943
  4760                      30.00       0.00       0.00       1.77       7.50      20.80      28.30        0.03     0.00   0.943
  4761                      30.00       0.00       0.00       1.77       7.50      20.80      28.30        0.03     0.00   0.943
  4765                      30.00       0.00       0.00       1.77       7.50      20.80      28.30        0.03     0.00   0.943
  4766                      30.00       0.00       0.00       1.77       7.50      20.80      28.30        0.03     0.00   0.943
  4767                      30.00       0.00       0.00       1.77       7.50      20.80      28.30        0.03     0.00   0.943
  4768                      30.00       0.00       0.00       1.77       7.50      20.80      28.30        0.03     0.00   0.943
  4769                      30.00       0.00       0.00       1.77       7.50      20.80      28.30        0.03     0.00   0.943
  4855                      30.00       0.00       0.00       1.77       7.50      20.80      28.30        0.03     0.00   0.943
  4856                      30.00       0.00       0.00       1.77       7.50      20.80      28.30        0.03     0.00   0.943
  5284                      30.00       0.00       0.00       1.77       7.50      20.80      28.30        0.03     0.00   0.943
  5285                      30.00       0.00       0.00       1.77       7.50      20.80      28.30        0.03     0.00   0.943
  5286                      30.00       0.00       0.00       1.77       7.50      20.80      28.30        0.03     0.00   0.943
  5287                      30.00       0.00       0.00       1.77       7.50      20.80      28.30        0.03     0.00   0.943
  5288                      30.00       0.00       0.00       1.77       7.50      20.80      28.30        0.03     0.00   0.943
  5289                      30.00       0.00       0.00       1.77       7.50      20.80      28.30        0.03     0.00   0.943
  5290                      30.00       0.00       0.00       1.77       7.50      20.80      28.30        0.03     0.00   0.943
  5291                      30.00       0.00       0.00       1.77       7.50      20.80      28.30        0.03     0.00   0.943
  5292                      30.00       0.00       0.00       1.77       7.50      20.80      28.30        0.03     0.00   0.943
  5293                      30.00       0.00       0.00       1.77       7.50      20.80      28.30        0.03     0.00   0.943
  5294                      30.00       0.00       0.00       1.77       7.50      20.80      28.30        0.03     0.00   0.943
  5295                      30.00       0.00       0.00       1.77       7.50      20.80      28.30        0.03     0.00   0.943
  5296                      30.00       0.00       0.00       1.77       7.50      20.80      28.30        0.03     0.00   0.943
  5297                      30.00       0.00       0.00       1.77       7.50      20.80      28.30        0.03     0.00   0.943
  5298                      30.00       0.00       0.00       1.77       7.50      20.80      28.30        0.03     0.00   0.943
  5299                      30.00       0.00       0.00       1.77       7.50      20.80      28.30        0.03     0.00   0.943
  5300                      30.00       0.00       0.00       1.77       7.50      20.80      28.30        0.03     0.00   0.943
  5301                      30.00       0.00       0.00       1.77       7.50      20.80      28.30        0.03     0.00   0.943
  5302                      30.00       0.00       0.00       1.77       7.50      20.80      28.30        0.03     0.00   0.943
  5303                      30.00       0.00       0.00       1.77       7.50      20.80      28.30        0.03     0.00   0.943
  5304                      30.00       0.00       0.00       1.77       7.50      20.80      28.30        0.03     0.00   0.943
  5305                      30.00       0.00       0.00       1.77       7.50      20.80      28.30        0.03     0.00   0.943
  5306                      30.00       0.00       0.00       1.77       7.50      20.80      28.30        0.03     0.00   0.943
  5307                      30.00       0.00       0.00       1.77       7.50      20.80      28.30        0.03     0.00   0.943
  5308                      30.00       0.00       0.00       1.77       7.50      20.80      28.30        0.03     0.00   0.943
  5309                      30.00       0.00       0.00       1.77       7.50      20.80      28.30        0.03     0.00   0.943
  5310                      30.00       0.00       0.00       1.77       7.50      20.80      28.30        0.03     0.00   0.943
  5311                      30.00       0.00       0.00       1.77       7.50      20.80      28.30        0.03     0.00   0.943
  5312                      30.00       0.00       0.00       1.77       7.50      20.80      28.30        0.03     0.00   0.943
  5313                      30.00       0.00       0.00       1.77       7.50      20.80      28.30        0.03     0.00   0.943
  5314                      30.00       0.00       0.00       1.77       7.50      20.80      28.30        0.03     0.00   0.943
  5315                      30.00       0.00       0.00       1.77       7.50      20.80      28.30        0.03     0.00   0.943
  5316                      30.00       0.00       0.00       1.77       7.50      20.80      28.30        0.03     0.00   0.943
  5317                      30.00       0.00       0.00       1.77       7.50      20.80      28.30        0.03     0.00   0.943
  5318                      30.00       0.00       0.00       1.77       7.50      20.80      28.30        0.03     0.00   0.943
  5319                      30.00       0.00       0.00       1.77       7.50      20.80      28.30        0.03     0.00   0.943
  5320                      30.00       0.00       0.00       1.77       7.50      20.80      28.30        0.03     0.00   0.943
  5321                      30.00       0.00       0.00       1.77       7.50      20.80      28.30        0.03     0.00   0.943
  5322                      30.00       0.00       0.00       1.77       7.50      20.80      28.30        0.03     0.00   0.943
  5323                      30.00       0.00       0.00       1.77       7.50      20.80      28.30        0.03     0.00   0.943
  5324                      30.00       0.00       0.00       1.77       7.50      20.80      28.30        0.03     0.00   0.943
  5325                      30.00       0.00       0.00       1.77       7.50      20.80      28.30        0.03     0.00   0.943
  5326                      30.00       0.00       0.00       1.77       7.50      20.80      28.30        0.03     0.00   0.943
  5327                      30.00       0.00       0.00       1.77       7.50      20.80      28.30        0.03     0.00   0.943
  5328                      30.00       0.00       0.00       1.77       7.50      20.80      28.30        0.03     0.00   0.943
  5329                      30.00       0.00       0.00       1.77       7.50      20.80      28.30        0.03     0.00   0.943
  5330                      30.00       0.00       0.00       1.77       7.50      20.80      28.30        0.03     0.00   0.943
  5333                      30.00       0.00       0.00       1.77       7.50      20.80      28.30        0.03     0.00   0.943
  5334                      30.00       0.00       0.00       1.77       7.50      20.80      28.30        0.03     0.00   0.943
  6040                      30.00       0.00       0.00       1.77       7.50      20.80      28.30        0.03     0.00   0.943
  6041                      30.00       0.00       0.00       1.77       7.50      20.80      28.30        0.03     0.00   0.943
  6162                      30.00       0.00       0.00       1.77       7.50      20.80      28.30        0.03     0.00   0.943
  7207                      30.00       0.00       0.00       1.77       7.50      20.80      28.30        0.03     0.00   0.943
  7208                      30.00       0.00       0.00       1.77       7.50      20.80      28.30        0.03     0.00   0.943
  7213                      30.00       0.00       0.00       1.77       7.50      20.80      28.30        0.03     0.00   0.943
  7214                      30.00       0.00       0.00       1.77       7.50      20.80      28.30        0.03     0.00   0.943
  7219                      30.00       0.00       0.00       1.77       7.50      20.80      28.30        0.03     0.00   0.943
  7220                      30.00       0.00       0.00       1.77       7.50      20.80      28.30        0.03     0.00   0.943
  7221                      30.00       0.00       0.00       1.77       7.50      20.80      28.30        0.03     0.00   0.943
  7225                      30.00       0.00       0.00       1.77       7.50      20.80      28.30        0.03     0.00   0.943
  7229                      30.00       0.00       0.00       1.77       7.50      20.80      28.30        0.03     0.00   0.943
  7231                      30.00       0.00       0.00       1.77       7.50      20.80      28.30        0.03     0.00   0.943
  7268                      30.00       0.00       0.00       1.77       7.50      20.80      28.30        0.03     0.00   0.943
  7269                      30.00       0.00       0.00       1.77       7.50      20.80      28.30        0.03     0.00   0.943
  7271                      30.00       0.00       0.00       1.77       7.50      20.80      28.30        0.03     0.00   0.943
  7272                      30.00       0.00       0.00       1.77       7.50      20.80      28.30        0.03     0.00   0.943
  7273                      30.00       0.00       0.00       1.77       7.50      20.80      28.30        0.03     0.00   0.943
  7433                      30.00       0.00       0.00       1.77       7.50      20.80      28.30        0.03     0.00   0.943
  7434                      30.00       0.00       0.00       1.77       7.50      20.80      28.30        0.03     0.00   0.943
  7544                      30.00       0.00       0.00       1.77       7.50      20.80      28.30        0.03     0.00   0.943
  7545                      30.00       0.00       0.00       1.77       7.50      20.80      28.30        0.03     0.00   0.943
  8737                      30.00       0.00       0.00       1.77       7.50      20.80      28.30        0.03     0.00   0.943
  8818                      30.00       0.00       0.00       1.77       7.50      20.80      28.30        0.03     0.00   0.943
  9942                      30.00       0.00       0.00       1.77       7.50      20.80      28.30        0.03     0.00   0.943
  9957                      30.00       0.00       0.00       1.77       7.50      20.80      28.30        0.03     0.00   0.943
  4399                      30.00       0.00       0.00       1.70       7.50      20.89      28.39        0.01     0.00   0.946
  4400                      30.00       0.00       0.00       1.70       7.50      20.89      28.39        0.01     0.00   0.946
  4401                      30.00       0.00       0.00       1.70       7.50      20.89      28.39        0.01     0.00   0.946
  4402                      30.00       0.00       0.00       1.70       7.50      20.89      28.39        0.01     0.00   0.946
  4403                      30.00       0.00       0.00       1.70       7.50      20.89      28.39        0.01     0.00   0.946
  4404                      30.00       0.00       0.00       1.70       7.50      20.89      28.39        0.01     0.00   0.946
  4405                      30.00       0.00       0.00       1.70       7.50      20.89      28.39        0.01     0.00   0.946
  4406                      30.00       0.00       0.00       1.70       7.50      20.89      28.39        0.01     0.00   0.946
  4407                      30.00       0.00       0.00       1.70       7.50      20.89      28.39        0.01     0.00   0.946
  4408                      30.00       0.00       0.00       1.70       7.50      20.89      28.39        0.01     0.00   0.946
  4409                      30.00       0.00       0.00       1.70       7.50      20.89      28.39        0.01     0.00   0.946
  4410                      30.00       0.00       0.00       1.70       7.50      20.89      28.39        0.01     0.00   0.946
  4411                      30.00       0.00       0.00       1.70       7.50      20.89      28.39        0.01     0.00   0.946
  4412                      30.00       0.00       0.00       1.70       7.50      20.89      28.39        0.01     0.00   0.946
  4423                      30.00       0.00       0.00       1.70       7.50      20.89      28.39        0.01     0.00   0.946
  4424                      30.00       0.00       0.00       1.70       7.50      20.89      28.39        0.01     0.00   0.946
  4425                      30.00       0.00       0.00       1.70       7.50      20.89      28.39        0.01     0.00   0.946
  4426                      30.00       0.00       0.00       1.70       7.50      20.89      28.39        0.01     0.00   0.946
  4427                      30.00       0.00       0.00       1.70       7.50      20.89      28.39        0.01     0.00   0.946
  4428                      30.00       0.00       0.00       1.70       7.50      20.89      28.39        0.01     0.00   0.946
  4455                      30.00       0.00       0.00       1.70       7.50      20.89      28.39        0.01     0.00   0.946
  4456                      30.00       0.00       0.00       1.70       7.50      20.89      28.39        0.01     0.00   0.946
  4457                      30.00       0.00       0.00       1.70       7.50      20.89      28.39        0.01     0.00   0.946
  4458                      30.00       0.00       0.00       1.70       7.50      20.89      28.39        0.01     0.00   0.946
  4459                      30.00       0.00       0.00       1.70       7.50      20.89      28.39        0.01     0.00   0.946
  4460                      30.00       0.00       0.00       1.70       7.50      20.89      28.39        0.01     0.00   0.946
  4461                      30.00       0.00       0.00       1.70       7.50      20.89      28.39        0.01     0.00   0.946
  4464                      30.00       0.00       0.00       1.70       7.50      20.89      28.39        0.01     0.00   0.946
  4465                      30.00       0.00       0.00       1.70       7.50      20.89      28.39        0.01     0.00   0.946
  4466                      30.00       0.00       0.00       1.70       7.50      20.89      28.39        0.01     0.00   0.946
  4467                      30.00       0.00       0.00       1.70       7.50      20.89      28.39        0.01     0.00   0.946
  4468                      30.00       0.00       0.00       1.70       7.50      20.89      28.39        0.01     0.00   0.946
  4469                      30.00       0.00       0.00       1.70       7.50      20.89      28.39        0.01     0.00   0.946
  4470                      30.00       0.00       0.00       1.70       7.50      20.89      28.39        0.01     0.00   0.946
  4471                      30.00       0.00       0.00       1.70       7.50      20.89      28.39        0.01     0.00   0.946
  4472                      30.00       0.00       0.00       1.70       7.50      20.89      28.39        0.01     0.00   0.946
  4473                      30.00       0.00       0.00       1.70       7.50      20.89      28.39        0.01     0.00   0.946
  4474                      30.00       0.00       0.00       1.70       7.50      20.89      28.39        0.01     0.00   0.946
  4628                      30.00       0.00       0.00       1.70       7.50      20.89      28.39        0.01     0.00   0.946
  4631                      30.00       0.00       0.00       1.70       7.50      20.89      28.39        0.01     0.00   0.946
  4632                      30.00       0.00       0.00       1.70       7.50      20.89      28.39        0.01     0.00   0.946
  4633                      30.00       0.00       0.00       1.70       7.50      20.89      28.39        0.01     0.00   0.946
  4634                      30.00       0.00       0.00       1.70       7.50      20.89      28.39        0.01     0.00   0.946
  4637                      30.00       0.00       0.00       1.70       7.50      20.89      28.39        0.01     0.00   0.946
  4686                      30.00       0.00       0.00       1.70       7.50      20.89      28.39        0.01     0.00   0.946
  4687                      30.00       0.00       0.00       1.70       7.50      20.89      28.39        0.01     0.00   0.946
  4688                      30.00       0.00       0.00       1.70       7.50      20.89      28.39        0.01     0.00   0.946
  5032                      30.00       0.00       0.00       1.70       7.50      20.89      28.39        0.01     0.00   0.946
  5331                      30.00       0.00       0.00       1.70       7.50      20.89      28.39        0.01     0.00   0.946
  5332                      30.00       0.00       0.00       1.70       7.50      20.89      28.39        0.01     0.00   0.946
  5335                      30.00       0.00       0.00       1.70       7.50      20.89      28.39        0.01     0.00   0.946
  5336                      30.00       0.00       0.00       1.70       7.50      20.89      28.39        0.01     0.00   0.946
  5337                      30.00       0.00       0.00       1.70       7.50      20.89      28.39        0.01     0.00   0.946
  5338                      30.00       0.00       0.00       1.70       7.50      20.89      28.39        0.01     0.00   0.946
  5339                      30.00       0.00       0.00       1.70       7.50      20.89      28.39        0.01     0.00   0.946
  5340                      30.00       0.00       0.00       1.70       7.50      20.89      28.39        0.01     0.00   0.946
  5341                      30.00       0.00       0.00       1.70       7.50      20.89      28.39        0.01     0.00   0.946
  5342                      30.00       0.00       0.00       1.70       7.50      20.89      28.39        0.01     0.00   0.946
  5343                      30.00       0.00       0.00       1.70       7.50      20.89      28.39        0.01     0.00   0.946
  5344                      30.00       0.00       0.00       1.70       7.50      20.89      28.39        0.01     0.00   0.946
  5345                      30.00       0.00       0.00       1.70       7.50      20.89      28.39        0.01     0.00   0.946
  5346                      30.00       0.00       0.00       1.70       7.50      20.89      28.39        0.01     0.00   0.946
  5347                      30.00       0.00       0.00       1.70       7.50      20.89      28.39        0.01     0.00   0.946
  5348                      30.00       0.00       0.00       1.70       7.50      20.89      28.39        0.01     0.00   0.946
  5349                      30.00       0.00       0.00       1.70       7.50      20.89      28.39        0.01     0.00   0.946
  5350                      30.00       0.00       0.00       1.70       7.50      20.89      28.39        0.01     0.00   0.946
  6088                      30.00       0.00       0.00       1.70       7.50      20.89      28.39        0.01     0.00   0.946
  7275                      30.00       0.00       0.00       1.70       7.50      20.89      28.39        0.01     0.00   0.946
  9955                      30.00       0.00       0.00       1.70       7.50      20.89      28.39        0.01     0.00   0.946
  9956                      30.00       0.00       0.00       1.70       7.50      20.89      28.39        0.01     0.00   0.946
  
  
  ****************************
  Subcatchment Washoff Summary
  ****************************
  
  ----------------------------------
                                 COD
  Subcatchment                    kg
  ----------------------------------
  2707                         7.443
  2708                         7.443
  2709                         7.443
  2710                         7.443
  2712                         7.443
  2713                         7.443
  2714                         7.443
  2715                         7.443
  2716                         7.443
  2717                         7.443
  2718                         7.443
  2719                         7.443
  2721                         7.443
  2722                         7.443
  2723                         7.443
  2724                         7.443
  2725                         7.443
  2726                         7.443
  2727                         7.443
  2728                         7.443
  2729                         7.443
  2730                         7.443
  2731                         7.443
  2732                         7.443
  2733                         7.443
  2734                         7.443
  2735                         7.443
  2736                         7.443
  2737                         7.443
  2738                         7.443
  2739                         7.443
  2740                         7.443
  2741                         7.443
  2742                         7.443
  2743                         7.443
  2744                         7.443
  2745                         7.443
  2746                         7.443
  2747                         7.443
  2748                         7.443
  2749                         7.443
  2750                         7.443
  2751                         7.443
  2752                         7.443
  2753                         7.443
  2754                         7.443
  2755                         7.443
  2756                         7.443
  2964                         7.443
  2969                         7.443
  2970                         7.443
  2974                         7.443
  2975                         7.443
  2976                         7.443
  2977                         7.443
  2978                         7.443
  2979                         7.443
  2980                         7.443
  2981                         7.443
  2982                         7.443
  2984                         7.443
  2985                         7.443
  3925                         7.443
  3926                         7.443
  3927                         7.443
  3928                         7.443
  3929                         7.443
  3930                         7.443
  3931                         7.443
  3932                         7.443
  3933                         7.443
  3934                         7.443
  3935                         7.443
  3936                         7.443
  3937                         7.443
  3938                         7.443
  3939                         7.443
  3940                         7.443
  3941                         7.443
  3942                         7.443
  3943                         7.443
  3944                         7.443
  3945                         7.443
  3946                         7.443
  3947                         7.443
  3948                         7.443
  3949                         7.443
  3950                         7.443
  3951                         7.443
  3952                         7.443
  3953                         7.443
  3954                         7.443
  3955                         7.443
  3956                         7.443
  4032                         7.443
  4033                         7.443
  4041                         7.443
  4051                         7.443
  4055                         7.443
  4056                         7.443
  4058                         7.443
  4385                         7.443
  4386                         7.443
  4387                         7.443
  4388                         7.443
  4389                         7.443
  4390                         7.443
  4391                         7.443
  4392                         7.443
  4393                         7.443
  4394                         7.443
  4395                         7.443
  4396                         7.443
  4397                         7.443
  4398                         7.443
  4429                         7.443
  4430                         7.443
  4431                         7.443
  4432                         7.443
  4433                         7.443
  4434                         7.443
  4435                         7.443
  4436                         7.443
  4437                         7.443
  4438                         7.443
  4439                         7.443
  4440                         7.443
  4441                         7.443
  4442                         7.443
  4443                         7.443
  4444                         7.443
  4445                         7.443
  4446                         7.443
  4447                         7.443
  4448                         7.443
  4449                         7.443
  4450                         7.443
  4451                         7.443
  4452                         7.443
  4453                         7.443
  4454                         7.443
  4462                         7.443
  4463                         7.443
  4563                         7.443
  4564                         7.443
  4565                         7.443
  4566                         7.443
  4567                         7.443
  4568                         7.443
  4569                         7.443
  4570                         7.443
  4571                         7.443
  4572                         7.443
  4573                         7.443
  4574                         7.443
  4575                         7.443
  4576                         7.443
  4577                         7.443
  4578                         7.443
  4579                         7.443
  4580                         7.443
  4581                         7.443
  4624                         7.443
  4625                         7.443
  4644                         7.443
  4645                         7.443
  4646                         7.443
  4679                         7.443
  4680                         7.443
  4681                         7.443
  4682                         7.443
  4683                         7.443
  4711                         7.443
  4712                         7.443
  4713                         7.443
  4714                         7.443
  4715                         7.443
  4716                         7.443
  4717                         7.443
  4718                         7.443
  4722                         7.443
  4760                         7.443
  4761                         7.443
  4765                         7.443
  4766                         7.443
  4767                         7.443
  4768                         7.443
  4769                         7.443
  4855                         7.443
  4856                         7.443
  5284                         7.443
  5285                         7.443
  5286                         7.443
  5287                         7.443
  5288                         7.443
  5289                         7.443
  5290                         7.443
  5291                         7.443
  5292                         7.443
  5293                         7.443
  5294                         7.443
  5295                         7.443
  5296                         7.443
  5297                         7.443
  5298                         7.443
  5299                         7.443
  5300                         7.443
  5301                         7.443
  5302                         7.443
  5303                         7.443
  5304                         7.443
  5305                         7.443
  5306                         7.443
  5307                         7.443
  5308                         7.443
  5309                         7.443
  5310                         7.443
  5311                         7.443
  5312                         7.443
  5313                         7.443
  5314                         7.443
  5315                         7.443
  5316                         7.443
  5317                         7.443
  5318                         7.443
  5319                         7.443
  5320                         7.443
  5321                         7.443
  5322                         7.443
  5323                         7.443
  5324                         7.443
  5325                         7.443
  5326                         7.443
  5327                         7.443
  5328                         7.443
  5329                         7.443
  5330                         7.443
  5333                         7.443
  5334                         7.443
  6040                         7.443
  6041                         7.443
  6162                         7.443
  7207                         7.443
  7208                         7.443
  7213                         7.443
  7214                         7.443
  7219                         7.443
  7220                         7.443
  7221                         7.443
  7225                         7.443
  7229                         7.443
  7231                         7.443
  7268                         7.443
  7269                         7.443
  7271                         7.443
  7272                         7.443
  7273                         7.443
  7433                         7.443
  7434                         7.443
  7544                         7.443
  7545                         7.443
  8737                         7.443
  8818                         7.443
  9942                         7.443
  9957                         7.443
  4399                         2.240
  4400                         2.240
  4401                         2.240
  4402                         2.240
  4403                         2.240
  4404                         2.240
  4405                         2.240
  4406                         2.240
  4407                         2.240
  4408                         2.240
  4409                         2.240
  4410                         2.240
  4411                         2.240
  4412                         2.240
  4423                         2.240
  4424                         2.240
  4425                         2.240
  4426                         2.240
  4427                         2.240
  4428                         2.240
  4455                         2.240
  4456                         2.240
  4457                         2.240
  4458                         2.240
  4459                         2.240
  4460                         2.240
  4461                         2.240
  4464                         2.240
  4465                         2.240
  4466                         2.240
  4467                         2.240
  4468                         2.240
  4469                         2.240
  4470                         2.240
  4471                         2.240
  4472                         2.240
  4473                         2.240
  4474                         2.240
  4628                         2.240
  4631                         2.240
  4632                         2.240
  4633                         2.240
  4634                         2.240
  4637                         2.240
  4686                         2.240
  4687                         2.240
  4688                         2.240
  5032                         2.240
  5331                         2.240
  5332                         2.240
  5335                         2.240
  5336                         2.240
  5337                         2.240
  5338                         2.240
  5339                         2.240
  5340                         2.240
  5341                         2.240
  5342                         2.240
  5343                         2.240
  5344                         2.240
  5345                         2.240
  5346                         2.240
  5347                         2.240
  5348                         2.240
  5349                         2.240
  5350                         2.240
  6088                         2.240
  7275                         2.240
  9955                         2.240
  9956                         2.240
  ----------------------------------
  System                    2129.283
  
  
  ******************
  Node Depth Summary
  ******************
  
  ---------------------------------------------------------------------------------
                                 Average  Maximum  Maximum  Time of Max    Reported
                                   Depth    Depth      HGL   Occurrence   Max Depth
  Node                 Type       Meters   Meters   Meters  days hr:min      Meters
  ---------------------------------------------------------------------------------
  Node_02706           JUNCTION     1.61     1.69    98.53     0  02:44        0.00
  Node_02707           JUNCTION     0.22     0.24    99.67     0  03:00        0.00
  Node_02708           JUNCTION     0.36     0.38   100.14     0  02:00        0.00
  Node_02709           JUNCTION     0.42     0.43   100.07     0  02:00        0.00
  Node_02711           JUNCTION     0.06     0.11   100.02     0  03:00        0.00
  Node_02712           JUNCTION     0.07     0.11   100.01     0  03:00        0.00
  Node_02713           JUNCTION     0.10     0.15   100.00     0  03:00        0.00
  Node_02714           JUNCTION     0.02     0.03   100.43     0  03:00        0.00
  Node_02715           JUNCTION     0.07     0.12    99.93     0  03:00        0.00
  Node_02716           JUNCTION     0.08     0.13    99.85     0  03:00        0.00
  Node_02717           JUNCTION     0.11     0.17    99.81     0  03:00        0.00
  Node_02718           JUNCTION     0.09     0.15    99.75     0  03:00        0.00
  Node_02720           JUNCTION     0.10     0.16    99.72     0  03:00        0.00
  Node_02721           JUNCTION     0.37     0.44    99.68     0  03:00        0.00
  Node_02722           JUNCTION     0.13     0.15   101.95     0  03:00        0.00
  Node_02723           JUNCTION     0.29     0.36    99.66     0  03:00        0.00
  Node_02724           JUNCTION     0.12     0.19    99.61     0  03:00        0.00
  Node_02725           JUNCTION     0.12     0.19    99.56     0  03:00        0.00
  Node_02726           JUNCTION     0.15     0.22    99.49     0  03:01        0.00
  Node_02727           JUNCTION     0.22     0.32    99.44     0  03:00        0.00
  Node_02728           JUNCTION     0.05     0.06   100.14     0  03:00        0.00
  Node_02729           JUNCTION     0.25     0.36    99.42     0  03:01        0.00
  Node_02730           JUNCTION     0.25     0.37    99.40     0  03:00        0.00
  Node_02731           JUNCTION     0.66     0.79    99.38     0  03:00        0.00
  Node_02732           JUNCTION     0.22     0.35    99.37     0  02:57        0.00
  Node_02733           JUNCTION     0.21     0.35    99.36     0  03:00        0.00
  Node_02734           JUNCTION     0.49     0.63    99.34     0  03:00        0.00
  Node_02735           JUNCTION     0.39     0.53    99.34     0  03:00        0.00
  Node_02736           JUNCTION     0.57     0.72    99.33     0  03:00        0.00
  Node_02737           JUNCTION     0.55     0.69    99.31     0  02:58        0.00
  Node_02738           JUNCTION     0.37     0.52    99.29     0  02:58        0.00
  Node_02739           JUNCTION     0.24     0.39    99.26     0  02:59        0.00
  Node_02740           JUNCTION     0.24     0.40    99.24     0  02:59        0.00
  Node_02741           JUNCTION     0.05     0.07    99.37     0  02:00        0.00
  Node_02742           JUNCTION     0.25     0.41    99.21     0  02:59        0.00
  Node_02743           JUNCTION     0.66     0.81    99.18     0  03:00        0.00
  Node_02744           JUNCTION     0.06     0.08    99.42     0  00:00        0.00
  Node_02745           JUNCTION     0.39     0.54    99.16     0  03:00        0.00
  Node_02746           JUNCTION     0.28     0.43    99.12     0  03:00        0.00
  Node_02747           JUNCTION     0.05     0.07   100.42     0  02:00        0.00
  Node_02748           JUNCTION     0.03     0.04   100.49     0  02:00        0.00
  Node_02749           JUNCTION     0.29     0.43    99.07     0  03:00        0.00
  Node_02750           JUNCTION     0.28     0.42    99.02     0  03:00        0.00
  Node_02751           JUNCTION     0.25     0.37    98.97     0  03:00        0.00
  Node_02752           JUNCTION     0.23     0.35    98.90     0  03:01        0.00
  Node_02753           JUNCTION     0.24     0.34    98.82     0  03:01        0.00
  Node_02754           JUNCTION     0.13     0.21    98.53     0  02:43        0.00
  Node_02755           JUNCTION     1.06     1.14    98.53     0  02:43        0.00
  Node_02963           JUNCTION     0.06     0.08    99.99     0  02:00        0.00
  Node_02968           JUNCTION     0.07     0.08   100.20     0  02:00        0.00
  Node_02969           JUNCTION     0.07     0.10    99.98     0  00:00        0.00
  Node_02973           JUNCTION     0.60     0.64    98.53     0  02:44        0.00
  Node_02974           JUNCTION     0.53     0.81    97.94     0  04:00        0.00
  Node_02975           JUNCTION     0.54     0.82    97.96     0  04:01        0.00
  Node_02976           JUNCTION     0.60     0.98    98.17     0  04:01        0.00
  Node_02977           JUNCTION     0.65     1.17    98.51     0  04:01        0.00
  Node_02978           JUNCTION     0.60     1.12    98.65     0  04:01        0.00
  Node_02979           JUNCTION     0.46     0.67    97.79     0  04:01        0.00
  Node_02980           JUNCTION     0.36     0.52    97.61     0  04:01        0.00
  Node_02981           JUNCTION     0.30     0.43    97.38     0  04:01        0.00
  Node_02983           JUNCTION     0.04     0.05   100.17     0  02:00        0.00
  Node_02984           JUNCTION     0.98     1.48    98.46     0  04:01        0.00
  Node_03924           JUNCTION     0.02     0.03   100.85     0  02:00        0.00
  Node_03925           JUNCTION     0.25     0.28   100.65     0  03:00        0.00
  Node_03926           JUNCTION     0.01     0.02   101.49     0  03:00        0.00
  Node_03927           JUNCTION     0.22     0.26   100.64     0  03:00        0.00
  Node_03928           JUNCTION     0.24     0.28   100.63     0  03:00        0.00
  Node_03929           JUNCTION     0.24     0.29   100.59     0  03:00        0.00
  Node_03930           JUNCTION     0.25     0.31   100.56     0  03:00        0.00
  Node_03931           JUNCTION     0.24     0.29   100.54     0  03:00        0.00
  Node_03932           JUNCTION     0.26     0.33   100.49     0  03:00        0.00
  Node_03933           JUNCTION     0.25     0.30   100.42     0  03:00        0.00
  Node_03934           JUNCTION     0.06     0.07   100.93     0  03:00        0.00
  Node_03935           JUNCTION     0.31     0.41   100.38     0  03:00        0.00
  Node_03936           JUNCTION     0.33     0.44   100.37     0  03:00        0.00
  Node_03937           JUNCTION     1.21     1.22   101.38     0  03:00        0.00
  Node_03938           JUNCTION     1.42     3.04   102.24     0  01:54        0.00
  Node_03939           JUNCTION     1.52     3.20   102.23     0  01:54        0.00
  Node_03940           JUNCTION     1.59     3.30   102.23     0  01:54        0.00
  Node_03941           JUNCTION     1.68     3.41   102.21     0  01:54        0.00
  Node_03942           JUNCTION     1.71     3.46   102.21     0  01:54        0.00
  Node_03943           JUNCTION     1.80     3.58   102.19     0  01:54        0.00
  Node_03944           JUNCTION     1.89     3.69   102.17     0  01:54        0.00
  Node_03945           JUNCTION     1.95     3.75   102.17     0  02:16        0.00
  Node_03946           JUNCTION     2.00     3.80   102.16     0  01:59        0.00
  Node_03947           JUNCTION     2.17     3.92   101.81     0  02:28        0.00
  Node_03948           JUNCTION     2.06     3.74   101.59     0  02:16        0.00
  Node_03949           JUNCTION     2.11     3.74   101.44     0  02:20        0.00
  Node_03950           JUNCTION     1.93     3.49   101.26     0  02:23        0.00
  Node_03951           JUNCTION     1.83     3.31   101.00     0  02:21        0.00
  Node_03952           JUNCTION     1.75     3.10   100.69     0  02:24        0.00
  Node_03953           JUNCTION     1.56     2.76   100.34     0  02:00        0.00
  Node_03954           JUNCTION     2.33     3.39    99.97     0  02:00        0.00
  Node_03955           JUNCTION     1.18     2.06    99.55     0  02:16        0.00
  Node_04031           JUNCTION     0.34     0.77   102.00     0  02:08        0.00
  Node_04032           JUNCTION     1.88     3.65   102.00     0  02:00        0.00
  Node_04040           JUNCTION     0.73     1.65   102.20     0  01:52        0.00
  Node_04050           JUNCTION     0.25     0.26   101.22     0  02:00        0.00
  Node_04054           JUNCTION     0.02     0.03   101.17     0  02:00        0.00
  Node_04055           JUNCTION     0.14     0.16   100.97     0  02:00        0.00
  Node_04057           JUNCTION     0.03     0.05   100.36     0  03:00        0.00
  Node_04384           JUNCTION     0.87     1.36    98.94     0  04:00        0.00
  Node_04385           JUNCTION     0.61     1.12    99.03     0  04:00        0.00
  Node_04386           JUNCTION     0.61     1.14    99.08     0  04:00        0.00
  Node_04387           JUNCTION     0.62     1.17    99.13     0  04:00        0.00
  Node_04388           JUNCTION     0.63     1.20    99.20     0  04:00        0.00
  Node_04389           JUNCTION     0.13     0.15   100.51     0  02:00        0.00
  Node_04390           JUNCTION     0.64     1.21    99.23     0  04:15        0.00
  Node_04391           JUNCTION     0.65     1.24    99.31     0  04:15        0.00
  Node_04392           JUNCTION     0.77     1.36    99.32     0  04:15        0.00
  Node_04393           JUNCTION     0.66     1.27    99.38     0  04:15        0.00
  Node_04394           JUNCTION     0.08     0.09    99.74     0  02:00        0.00
  Node_04395           JUNCTION     0.66     1.30    99.45     0  04:15        0.00
  Node_04396           JUNCTION     0.66     1.31    99.51     0  04:15        0.00
  Node_04397           JUNCTION     0.01     0.02    99.92     0  03:00        0.00
  Node_04428           JUNCTION     0.69     1.34    99.56     0  04:15        0.00
  Node_04429           JUNCTION     0.69     1.35    99.60     0  04:15        0.00
  Node_04430           JUNCTION     0.69     1.36    99.64     0  04:15        0.00
  Node_04431           JUNCTION     0.51     1.09    99.66     0  04:15        0.00
  Node_04432           JUNCTION     0.44     0.99    99.67     0  04:15        0.00
  Node_04433           JUNCTION     0.29     0.79    99.67     0  04:15        0.00
  Node_04434           JUNCTION     0.57     1.09    99.68     0  04:15        0.00
  Node_04435           JUNCTION     0.43     0.91    99.69     0  04:15        0.00
  Node_04436           JUNCTION     0.84     1.30    99.70     0  04:15        0.00
  Node_04437           JUNCTION     0.98     1.42    99.71     0  04:15        0.00
  Node_04438           JUNCTION     1.28     1.70    99.71     0  04:15        0.00
  Node_04439           JUNCTION     0.35     0.75    99.72     0  04:15        0.00
  Node_04440           JUNCTION     0.35     0.72    99.73     0  04:15        0.00
  Node_04441           JUNCTION     0.13     0.40    99.73     0  04:15        0.00
  Node_04442           JUNCTION     0.42     0.77    99.74     0  04:15        0.00
  Node_04443           JUNCTION     0.29     0.61    99.75     0  04:15        0.00
  Node_04444           JUNCTION     0.29     0.58    99.75     0  04:15        0.00
  Node_04445           JUNCTION     0.24     0.49    99.76     0  04:15        0.00
  Node_04446           JUNCTION     0.22     0.43    99.76     0  04:15        0.00
  Node_04447           JUNCTION     0.19     0.33    99.77     0  04:15        0.00
  Node_04448           JUNCTION     0.22     0.33    99.78     0  04:15        0.00
  Node_04449           JUNCTION     0.24     0.33    99.79     0  04:15        0.00
  Node_04450           JUNCTION     0.40     0.48    99.80     0  04:15        0.00
  Node_04451           JUNCTION     0.23     0.28    99.82     0  04:15        0.00
  Node_04452           JUNCTION     0.05     0.07    99.89     0  02:00        0.00
  Node_04453           JUNCTION     0.02     0.03   100.25     0  02:00        0.00
  Node_04461           JUNCTION     0.22     0.23    99.85     0  04:15        0.00
  Node_04462           JUNCTION     0.23     0.24    99.89     0  04:15        0.00
  Node_04562           JUNCTION     0.08     0.32    99.91     0  04:15        0.00
  Node_04563           JUNCTION     0.39     0.79    99.91     0  04:15        0.00
  Node_04564           JUNCTION     0.17     0.53    99.91     0  04:15        0.00
  Node_04565           JUNCTION     0.19     0.55    99.91     0  04:15        0.00
  Node_04566           JUNCTION     0.30     0.72    99.91     0  04:15        0.00
  Node_04567           JUNCTION     0.26     0.69    99.91     0  04:15        0.00
  Node_04568           JUNCTION     0.26     0.72    99.91     0  04:15        0.00
  Node_04569           JUNCTION     0.38     0.93    99.90     0  04:15        0.00
  Node_04570           JUNCTION     0.08     0.17    99.90     0  04:15        0.00
  Node_04571           JUNCTION     0.39     0.96    99.89     0  04:15        0.00
  Node_04572           JUNCTION     1.76     2.35    99.88     0  04:15        0.00
  Node_04573           JUNCTION     1.43     2.03    99.87     0  04:15        0.00
  Node_04574           JUNCTION     2.14     2.15   100.45     0  03:00        0.00
  Node_04575           JUNCTION     1.89     2.53    99.84     0  04:15        0.00
  Node_04576           JUNCTION     0.50     1.15    99.80     0  04:15        0.00
  Node_04577           JUNCTION     0.52     1.19    99.77     0  04:15        0.00
  Node_04578           JUNCTION     0.54     1.23    99.74     0  04:15        0.00
  Node_04579           JUNCTION     0.58     1.29    99.70     0  04:15        0.00
  Node_04580           JUNCTION     0.03     0.04    99.82     0  02:00        0.00
  Node_04623           JUNCTION     0.05     0.08    99.74     0  00:00        0.00
  Node_04624           JUNCTION     0.06     0.14    99.60     0  04:15        0.00
  Node_04643           JUNCTION     0.05     0.06    99.97     0  02:00        0.00
  Node_04644           JUNCTION     0.03     0.04    99.88     0  02:00        0.00
  Node_04645           JUNCTION     0.21     0.23    99.83     0  02:00        0.00
  Node_04678           JUNCTION     0.04     0.05    99.77     0  02:00        0.00
  Node_04679           JUNCTION     0.04     0.04   100.23     0  00:00        0.00
  Node_04680           JUNCTION     0.63     1.11    98.88     0  04:00        0.00
  Node_04681           JUNCTION     0.59     1.07    98.79     0  04:00        0.00
  Node_04682           JUNCTION     0.04     0.04   101.05     0  02:00        0.00
  Node_04710           JUNCTION     0.14     0.16   100.15     0  02:56        0.00
  Node_04711           JUNCTION     0.19     0.23   100.22     0  02:56        0.00
  Node_04712           JUNCTION     0.18     0.22   100.23     0  01:49        0.00
  Node_04713           JUNCTION     0.14     0.17   100.22     0  02:27        0.00
  Node_04714           JUNCTION     0.18     0.21   100.26     0  02:59        0.00
  Node_04715           JUNCTION     0.14     0.17   100.26     0  04:01        0.00
  Node_04716           JUNCTION     0.17     0.18   100.31     0  00:00        0.00
  Node_04717           JUNCTION     0.12     0.13   100.43     0  02:00        0.00
  Node_04721           JUNCTION     0.11     0.12   100.47     0  02:00        0.00
  Node_04759           JUNCTION     0.11     0.12   100.30     0  02:00        0.00
  Node_04760           JUNCTION     0.13     0.14    99.60     0  00:00        0.00
  Node_04764           JUNCTION     0.15     0.17   100.09     0  02:00        0.00
  Node_04765           JUNCTION     0.09     0.13   100.55     0  04:15        0.00
  Node_04766           JUNCTION     0.16     0.17    99.94     0  02:00        0.00
  Node_04767           JUNCTION     0.15     0.16    99.99     0  02:00        0.00
  Node_04768           JUNCTION     0.14     0.25    99.91     0  04:15        0.00
  Node_04854           JUNCTION     0.03     0.05   100.49     0  04:15        0.00
  Node_04855           JUNCTION     0.54     0.56   100.49     0  02:00        0.00
  Node_05283           JUNCTION     1.83     3.56   102.18     0  02:00        0.00
  Node_05284           JUNCTION     1.81     3.53   102.19     0  02:25        0.00
  Node_05285           JUNCTION     1.76     3.47   102.22     0  02:17        0.00
  Node_05286           JUNCTION     1.74     3.42   102.22     0  01:53        0.00
  Node_05287           JUNCTION     1.71     3.41   102.26     0  01:54        0.00
  Node_05288           JUNCTION     1.70     3.39   102.27     0  01:53        0.00
  Node_05289           JUNCTION     1.24     2.69   102.21     0  02:08        0.00
  Node_05290           JUNCTION     1.70     3.39   102.28     0  01:54        0.00
  Node_05291           JUNCTION     1.51     3.13   102.33     0  01:54        0.00
  Node_05292           JUNCTION     1.48     3.08   102.33     0  01:54        0.00
  Node_05293           JUNCTION     1.47     3.07   102.33     0  01:54        0.00
  Node_05294           JUNCTION     1.43     3.03   102.34     0  01:54        0.00
  Node_05295           JUNCTION     1.47     3.06   102.33     0  01:54        0.00
  Node_05296           JUNCTION     1.45     3.02   102.33     0  01:54        0.00
  Node_05297           JUNCTION     1.27     2.76   102.27     0  01:53        0.00
  Node_05298           JUNCTION     1.41     2.94   102.33     0  01:54        0.00
  Node_05299           JUNCTION     1.40     2.92   102.33     0  01:54        0.00
  Node_05300           JUNCTION     1.37     2.87   102.32     0  01:54        0.00
  Node_05301           JUNCTION     1.33     2.83   102.32     0  01:54        0.00
  Node_05302           JUNCTION     1.34     2.80   102.31     0  01:54        0.00
  Node_05303           JUNCTION     1.30     2.77   102.31     0  01:54        0.00
  Node_05304           JUNCTION     1.33     2.78   102.31     0  01:54        0.00
  Node_05305           JUNCTION     1.32     2.77   102.31     0  01:54        0.00
  Node_05306           JUNCTION     1.30     2.72   102.30     0  01:54        0.00
[...]
  Link_01776                  0.01      0.01      0.01      2.95         0.01
  Link_01779                  0.01      0.01      0.01      1.82         0.01
  Link_01794                  0.01      0.01      0.01      2.85         0.01
  Link_01798                  2.89      2.89      3.01      0.01         0.01
  Link_01799                  2.63      2.63      2.89      0.01         0.01
  Link_01800                  3.01      3.01      3.07      0.01         0.01
  Link_01802                  2.66      2.68      2.66      3.10         2.64
  Link_01803                  2.63      2.66      2.63      3.15         2.63
  Link_01804                  2.72      2.74      2.72      3.13         2.71
  Link_01805                  2.74      2.76      2.74      3.14         2.63
  Link_01806                  2.76      2.78      2.76      3.13         2.73
  Link_01807                  2.78      2.79      2.78      2.86         2.49
  Link_01809                  2.79      2.81      2.79      3.12         2.79
  Link_01810                  2.81      2.81      2.81      3.09         2.67
  Link_01814                  2.82      2.83      2.82      3.09         2.76
  Link_01815                  2.83      2.83      2.83      2.10         2.23
  Link_01816                  2.83      2.87      2.83      3.27         2.83
  Link_01817                  0.01      0.01      2.46      0.01         0.01
  Link_01818                  2.87      2.87      2.87      2.67         2.51
  Link_01819                  2.87      2.88      2.87      2.63         2.44
  Link_02075                  2.55      2.55      2.57      0.01         0.01
  Link_02076                  2.57      2.57      2.68      0.01         0.01
  Link_02078                  2.68      2.68      2.80      0.01         0.01
  Link_02079                  0.01      0.01      2.16      0.01         0.01
  Link_02080                  2.80      2.80      2.87      0.01         0.01
  Link_02081                  2.87      2.87      2.96      0.01         0.01
  Link_02082                  2.96      2.96      3.08      0.01         0.01
  Link_02085                  2.28      2.28      2.47      0.01         0.01
  Link_02086                  2.20      2.20      2.28      0.01         0.01
  Link_02087                  2.03      2.03      2.20      0.01         0.01
  Link_02088                  1.93      1.93      2.03      0.01         0.01
  Link_02089                  1.76      1.76      1.93      0.01         0.01
  Link_02090                  1.69      1.69      1.76      0.01         0.01
  Link_02091                  1.49      1.49      1.69      0.01         0.01
  Link_02092                  1.36      1.36      1.49      0.01         0.01
  Link_02093                  1.28      1.28      1.38      0.01         0.01
  Link_02094                  0.33      0.33      1.08      0.01         0.01
  Link_02095                  0.01      0.01      0.33      0.01         0.01
  Link_02383                  0.01      0.01      1.13      0.01         0.01
  Link_02384                  1.13      1.13      1.33      0.01         0.01
  Link_02385                  1.36      1.36      1.39      0.01         0.01
  Link_02387                  1.43      1.43      1.70      0.01         0.01
  Link_02388                  1.74      1.74      1.82      0.01         0.01
  Link_02389                  0.01      0.01      1.25      0.01         0.01
  Link_02390                  1.85      1.85      1.93      0.01         0.01
  Link_02391                  1.93      1.93      2.41      0.01         0.01
  Link_02393                  2.43      2.43      2.47      0.01         0.01
  Link_05496                  2.97      3.07      2.97      3.27         2.97
  Link_05663                  0.01      0.01      2.61      0.01         0.01
  Link_05664                  4.13      4.13      4.14      0.01         0.01
  Link_05665                  4.19      4.31      4.19      4.71         4.19
  Link_05677                  4.13      4.14      4.13      4.35         4.13
  Link_05678                  2.46      2.46      2.46      0.01         0.01
  Link_05720                  2.68      2.72      2.68      3.17         2.68
  Link_05721                  2.81      2.82      2.81      3.09         2.76
  Link_05726                  2.47      2.47      2.58      0.01         0.01
  Link_05727                  2.47      2.47      2.49      0.01         0.01
  Link_05728                  1.08      1.08      1.36      0.01         0.01
  Link_05743                  2.47      2.47      2.55      0.01         0.01
  Link_05744                  3.08      3.08      3.22      0.01         0.01
  Link_05812                  3.56      3.56      3.75      0.01         0.01
  Link_05813                  3.24      3.24      3.28      0.01         0.01
  Link_05814                  2.98      2.98      3.03      0.01         0.01
  Link_05815                  2.91      2.91      2.94      0.01         0.01
  Link_07233                  0.01      0.01      0.01      2.88         0.01
  Link_07234                  0.01      0.01      0.01      3.13         0.01
  Link_07464                  3.04      3.04      3.06      0.01         0.01
  Link_07687                  3.19      3.19      3.24      0.01         0.01
  Link_08912                  0.01      0.01      2.29      0.01         0.01
  Link2_to_ChengXi            0.01      4.57      0.01      4.71         0.01
  
  
  ***************
  Pumping Summary
  ***************
  
  ---------------------------------------------------------------------------------------------------------
                                                  Min       Avg       Max     Total     Power    % Time Off
                        Percent   Number of      Flow      Flow      Flow    Volume     Usage    Pump Curve
  Pump                 Utilized   Start-Ups       CMS       CMS       CMS  10^6 ltr     Kw-hr    Low   High
  ---------------------------------------------------------------------------------------------------------
  Pump_ChengXi1           62.22         599      0.00      0.17      0.17     2.244     54.69    0.0    0.0
  Pump_ChengXi2           62.22         600      0.00      0.17      0.17     2.244     54.69    0.0    0.0
  Pump_ChengXi3           62.22         600      0.00      0.17      0.17     2.244     54.69    0.0    0.0
  Pump_ChengXi4           62.22         600      0.00      0.17      0.17     2.244     54.69    0.0    0.0
  Pump_LaoDongLu1        100.00           0      0.00      0.03      0.03     0.600      6.66    0.0    0.0
  Pump_LaoDongLu2          0.00           0      0.00      0.00      0.00     0.000      0.00    0.0    0.0
  Pump_LaoDongLu3          0.00           0      0.00      0.00      0.00     0.000      0.00    0.0    0.0
  outfallpump             96.18         109      0.00      0.36      0.45     7.395    148.66    0.0    0.0
  
  
  ***************************
  Link Pollutant Load Summary
  ***************************
  
  ----------------------------------
                                 COD
  Link                            kg
  ----------------------------------
  Link_01146                  28.347
  Link_01147                  36.202
  Link_01148                  43.956
  Link_01149                  51.300
  Link_01150                  58.693
  Link_01151                  65.923
  Link_01152                  66.120
  Link_01274                   9.211
  Link_01275                  16.668
  Link_01276                  36.889
  Link_01292                  12.753
  Link_01294                  51.987
  Link_01295                  59.472
  Link_01296                  66.985
  Link_01297                  87.294
  Link_01298                   9.214
  Link_01299                 104.060
  Link_01300                 111.598
  Link_01301                 119.163
  Link_01302                   9.204
  Link_01312                  12.765
  Link_01313                 391.961
  Link_01314                 399.968
  Link_01315                 407.759
  Link_01316                 415.621
  Link_01317                 423.548
  Link_01318                 431.866
  Link_01319                 440.269
  Link_01320                 482.394
  Link_01323                 229.736
  Link_01324                  11.208
  Link_01325                 248.437
  Link_01326                 256.410
  Link_01327                 249.370
  Link_01328                  11.103
  Link_01329                 268.631
  Link_01330                 276.813
  Link_01331                 284.810
  Link_01332                 175.190
  Link_01333                  11.419
  Link_01334                 194.283
  Link_01335                  12.475
  Link_01336                 213.577
  Link_01337                 145.830
  Link_01338                  11.466
  Link_01339                 126.763
  Link_01340                  11.289
  Link_01341                 111.299
  Link_01342                  11.265
  Link_01343                 119.520
  Link_01344                  20.001
  Link_01345                 130.563
  Link_01346                 135.484
  Link_01347                  11.816
  Link_01348                 146.025
  Link_01349                  20.196
  Link_01350                 150.730
  Link_01351                  11.885
  Link_01352                 159.320
  Link_01556                  10.937
  Link_01557                  18.583
  Link_01558                1929.317
  Link_01559                  32.460
  Link_01560                1921.478
  Link_01561                1970.809
  Link_01562                1979.817
  Link_01563                1988.798
  Link_01564                   8.154
  Link_01565                 158.006
  Link_01566                   9.938
  Link_01567                  11.601
  Link_01568                 170.024
  Link_01569                  11.317
  Link_01570                 179.116
  Link_01571                 186.362
  Link_01572                 204.620
  Link_01573                 101.527
  Link_01574                  92.386
  Link_01575                  11.788
  Link_01576                  72.116
  Link_01577                  51.450
  Link_01578                  43.325
  Link_01579                  11.651
  Link_01580                   5.794
  Link_01581                   8.075
  Link_01582                   5.789
  Link_01731                  10.981
  Link_01732                  18.490
  Link_01733                  26.033
  Link_01734                  11.044
  Link_01735                   9.212
  Link_01751                  61.443
  Link_01752                  69.025
  Link_01753                  87.725
  Link_01754                  95.267
  Link_01755                 102.858
  Link_01756                   9.230
  Link_01757                 119.650
  Link_01758                  10.979
  Link_01759                  11.060
  Link_01760                 145.929
  Link_01761                 153.582
  Link_01762                 161.240
  Link_01763                   9.214
  Link_01764                 178.128
  Link_01765                 193.762
  Link_01766                 201.496
  Link_01767                 288.460
  Link_01768                 296.232
  Link_01769                 303.757
  Link_01770                 311.544
  Link_01771                 319.358
  Link_01772                  23.212
  Link_01773                 350.648
  Link_01774                  30.635
  Link_01775                  79.319
  Link_01776                  71.892
  Link_01777                  64.382
  Link_01778                  56.950
  Link_01779                  49.464
  Link_01780                  41.909
  Link_01781                  34.289
  Link_01782                 410.448
  Link_01783                  11.010
  Link_01784                 429.674
  Link_01785                 438.246
  Link_01786                  61.263
  Link_01787                  32.403
  Link_01788                 540.362
  Link_01789                 549.083
  Link_01790                  16.306
  Link_01791                  14.616
  Link_01792                  12.790
  Link_01793                 598.069
  Link_01794                 606.745
  Link_01795                 615.249
  Link_01796                 623.694
  Link_01797                 632.070
  Link_01798                1226.974
  Link_01799                1216.823
  Link_01800                1235.917
  Link_01801                 665.881
  Link_01802                1170.512
  Link_01803                1207.028
  Link_01804                1056.600
  Link_01805                1047.689
  Link_01806                1038.674
  Link_01807                1029.360
  Link_01808                  14.536
  Link_01809                1006.674
  Link_01810                 989.564
  Link_01811                   7.425
  Link_01812                  52.212
  Link_01813                  43.175
  Link_01814                 955.016
  Link_01815                 945.611
  Link_01816                 927.169
  Link_01817                   9.190
  Link_01818                 892.729
  Link_01819                 871.106
  Link_01820                  12.758
  Link_01821                  25.370
  Link_01822                   5.783
  Link_01823                 184.423
  Link_01824                 181.795
  Link_01825                  51.259
  Link_01826                  53.639
  Link_01827                   2.238
  Link_01828                  58.304
  Link_01829                   5.772
  Link_01830                  66.571
  Link_01831                   2.238
  Link_01832                  71.254
  Link_01833                  73.648
  Link_01834                  78.442
  Link_01835                   2.237
  Link_01836                  40.363
  Link_01837                  20.107
  Link_01838                  28.259
  Link_01839                  37.884
  Link_01840                  35.584
  Link_01841                  33.307
  Link_01842                  27.016
  Link_01843                  22.385
  Link_01844                  20.099
  Link_02074                  10.985
  Link_02075                 182.545
  Link_02076                 203.171
  Link_02077                  17.807
  Link_02078                 228.882
  Link_02079                  12.713
  Link_02080                 249.369
  Link_02081                 257.145
  Link_02082                 264.890
  Link_02083                  12.760
  Link_02084                  10.997
  Link_02085                 580.969
  Link_02086                 564.088
  Link_02087                 556.051
  Link_02088                 547.788
  Link_02089                 539.997
  Link_02090                 510.114
  Link_02091                 502.269
  Link_02092                 494.221
  Link_02093                  10.965
  Link_02094                 466.843
  Link_02095                 458.641
  Link_02096                 412.493
  Link_02097                  18.034
  Link_02098                  19.910
  Link_02099                 404.396
  Link_02100                 396.374
  Link_02101                  16.274
  Link_02102                 363.911
  Link_02103                 339.581
  Link_02104                  22.000
  Link_02105                 267.885
  Link_02106                  14.537
  Link_02107                   7.412
  Link_02108                 252.495
  Link_02109                 244.614
  Link_02110                 268.077
  Link_02111                 176.876
  Link_02112                  16.309
  Link_02113                 130.178
  Link_02114                  36.304
  Link_02115                  33.922
  Link_02116                  31.616
  Link_02117                  29.356
  Link_02118                  27.071
  Link_02123                   5.783
  Link_02124                   8.051
  Link_02125                  10.325
  Link_02126                  12.571
  Link_02127                  24.806
  Link_02128                  22.521
  Link_02129                  20.266
  Link_02130                  18.009
  Link_02131                  15.715
  Link_02132                  13.415
  Link_02133                  11.116
  Link_02134                 132.592
  Link_02135                 134.971
  Link_02136                 143.158
  Link_02137                   5.784
  Link_02138                 163.282
  Link_02139                 160.881
  Link_02140                 158.416
  Link_02141                 156.062
  Link_02142                 153.621
  Link_02143                 145.509
  Link_02383                   7.443
  Link_02384                  14.779
  Link_02385                  22.249
  Link_02386                  25.348
  Link_02387                  55.068
  Link_02388                  62.588
  Link_02389                  25.235
  Link_02390                  70.231
  Link_02391                 102.927
  Link_02392                  32.871
  Link_02393                 143.468
  Link_05459                  53.873
  Link_05460                 138.281
  Link_05461                 185.823
  Link_05462                 389.522
  Link_05463                 589.121
  Link_05464                  26.175
  Link_05496                1911.947
  Link_05662                  44.388
  Link_05663                   9.203
  Link_05664                  73.733
  Link_05665                 490.657
  Link_05677                 366.305
  Link_05678                  18.252
  Link_05720                1161.698
  Link_05721                 980.468
  Link_05722                  16.311
  Link_05723                  91.444
  Link_05725                  14.870
  Link_05726                 589.044
  Link_05727                   9.165
  Link_05728                 475.135
  Link_05729                 371.905
  Link_05730                 265.591
  Link_05731                 179.185
  Link_05732                 174.546
  Link_05742                  25.416
  Link_05743                 151.081
  Link_05744                 272.970
  Link_05752                  21.659
  Link_05753                   4.018
  Link_05754                  24.692
  Link_05791                   5.780
  Link_05812                 221.325
  Link_05813                 125.771
  Link_05814                 149.077
  Link_05815                 174.611
  Link_05816                  18.425
  Link_05817                  26.592
  Link_05818                  11.129
  Link_05983                  27.364
  Link_05984                  19.910
  Link_06039                   2.234
  Link_07220                  94.235
  Link_07221                 101.729
  Link_07222                 131.380
  Link_07230                 139.078
  Link_07231                 146.744
  Link_07233                 299.277
  Link_07234                 306.945
  Link_07235                 145.027
  Link_07270                  25.306
  Link_07271                  32.808
  Link_07274                  16.317
  Link_07277                  40.264
  Link_07278                  47.720
  Link_07295                  55.231
  Link_07296                  62.792
  Link_07297                  86.689
  Link_07303                  10.993
  Link_07306                  10.988
  Link_07321                  11.115
  Link_07464                  21.860
  Link_07578                  25.395
  Link_07579                 331.155
  Link_07580                 297.724
  Link_07687                  20.091
  Link_07865                  11.104
  Link_08891                  12.759
  Link_08912                  34.240
  Link1_to_ChengXi          1997.980
  Link2_to_ChengXi           502.966
  Link3_to_ChengXi           315.283
  Link_to_LaoDongLu          270.476
  Pump_ChengXi1              739.489
  Pump_ChengXi2              739.489
  Pump_ChengXi3              739.489
  Pump_ChengXi4              739.489
  Pump_LaoDongLu1            236.931
  Pump_LaoDongLu2              0.000
  Pump_LaoDongLu3              0.000
  outfallpump               2328.045
  

  Analysis begun on:  Sat Sep  4 19:19:28 2021
  Analysis ended on:  Sat Sep  4 19:19:30 2021
  Total elapsed time: 00:00:02