
  EPA STORM WATER MANAGEMENT MODEL - VERSION 5.1 (Build 5.3.0.dev0)
  --------------------------------------------------------------

  WARNING 04: minimum elevation drop used for Conduit Link_01776
  WARNING 04: minimum elevation drop used for Conduit Link_01779
  WARNING 04: minimum elevation drop used for Conduit Link_07234
  WARNING 02: maximum depth increased for Node Node_06087
  
  *********************************************************
  NOTE: The summary statistics displayed in this report are
  based on results found at every computational time step,  
  not just on results from each reporting time step.
  *********************************************************
  
  ****************
  Analysis Options
  ****************
  Flow Units ............... CMS
  Process Models:
    Rainfall/Runoff ........ YES
    RDII ................... NO
    Snowmelt ............... NO
    Groundwater ............ NO
    Flow Routing ........... YES
    Ponding Allowed ........ YES
    Water Quality .......... YES
  Infiltration Method ...... HORTON
  Flow Routing Method ...... DYNWAVE
  Surcharge Method ......... EXTRAN
  Starting Date ............ 01/02/2011 00:00:00
  Ending Date .............. 01/02/2011 06:00:00
  Antecedent Dry Days ...... 0.0
  Report Time Step ......... 00:15:00
  Wet Time Step ............ 00:05:00
  Dry Time Step ............ 01:00:00
  Routing Time Step ........ 60.00 sec
  Variable Time Step ....... YES
  Maximum Trials ........... 8
  Number of Threads ........ 4
  Head Tolerance ........... 0.001500 m
  
  
  **************************        Volume         Depth
  Runoff Quantity Continuity     hectare-m            mm
  **************************     ---------       -------
  Total Precipitation ......         1.645        57.500
  Evaporation Loss .........         0.000         0.000
  Infiltration Loss ........         0.050         1.751
  Surface Runoff ...........         1.596        55.819
  Final Storage ............         0.000         0.009
  Continuity Error (%) .....        -0.138
  
  
  **************************           COD
  Runoff Quality Continuity             kg
  **************************    ----------
  Initial Buildup ..........         0.000
  Surface Buildup ..........         0.000
  Wet Deposition ...........      4325.060
  Sweeping Removal .........         0.000
  Infiltration Loss ........       131.727
  BMP Removal ..............         0.000
  Surface Runoff ...........      4198.608
  Remaining Buildup ........         0.706
  Continuity Error (%) .....        -0.138
  
  
  **************************        Volume        Volume
  Flow Routing Continuity        hectare-m      10^6 ltr
  **************************     ---------     ---------
  Dry Weather Inflow .......         0.153         1.529
  Wet Weather Inflow .......         1.596        15.964
  Groundwater Inflow .......         0.000         0.000
  RDII Inflow ..............         0.000         0.000
  External Inflow ..........         0.000         0.000
  External Outflow .........         0.803         8.028
  Flooding Loss ............         0.918         9.182
  Evaporation Loss .........         0.000         0.000
  Exfiltration Loss ........         0.000         0.000
  Initial Stored Volume ....         0.077         0.773
  Final Stored Volume ......         0.297         2.968
  Continuity Error (%) .....       -10.466
  
  
  **************************           COD
  Quality Routing Continuity            kg
  **************************    ----------
  Dry Weather Inflow .......       845.606
  Wet Weather Inflow .......      4198.592
  Groundwater Inflow .......         0.000
  RDII Inflow ..............         0.000
  External Inflow ..........         0.000
  External Outflow .........      2406.429
  Flooding Loss ............      2386.315
  Exfiltration Loss ........         0.000
  Mass Reacted .............         0.000
  Initial Stored Mass ......       427.257
  Final Stored Mass ........       710.950
  Continuity Error (%) .....        -0.589
  
  
  *************************
  Highest Continuity Errors
  *************************
  Node Node_04456 (-65.85%)
  Node Node_04713 (-45.58%)
  Node Node_07272 (-38.64%)
  Node Node_04715 (-37.98%)
  Node Node_04455 (29.52%)
  
  
  ***************************
  Time-Step Critical Elements
  ***************************
  Link Link_01778 (40.19%)
  Link Link_01292 (28.45%)
  Link Link_06039 (10.97%)
  Link Link_02129 (7.48%)
  Link Link_07234 (1.92%)
  
  
  ********************************
  Highest Flow Instability Indexes
  ********************************
  Link Link_01558 (80)
  Link Link_01778 (74)
  Link Link_01781 (70)
  Link Link_01561 (69)
  Link Link_01582 (69)
  
  
  *************************
  Routing Time Step Summary
  *************************
  Minimum Time Step           :     5.00 sec
  Average Time Step           :     5.00 sec
  Maximum Time Step           :     5.00 sec
  Percent in Steady State     :     0.00
  Average Iterations per Step :     7.04
  Percent Not Converging      :    73.96
  
  
  ***************************
  Subcatchment Runoff Summary
  ***************************
  
  ------------------------------------------------------------------------------------------------------------------------------
                            Total      Total      Total      Total     Imperv       Perv      Total       Total     Peak  Runoff
                           Precip      Runon       Evap      Infil     Runoff     Runoff     Runoff      Runoff   Runoff   Coeff
  Subcatchment                 mm         mm         mm         mm         mm         mm         mm    10^6 ltr      CMS
  ------------------------------------------------------------------------------------------------------------------------------
  2707                      57.50       0.00       0.00       1.76      14.38      41.44      55.82        0.06     0.01   0.971
  2708                      57.50       0.00       0.00       1.76      14.38      41.44      55.82        0.06     0.01   0.971
  2709                      57.50       0.00       0.00       1.76      14.38      41.44      55.82        0.06     0.01   0.971
  2710                      57.50       0.00       0.00       1.76      14.38      41.44      55.82        0.06     0.01   0.971
  2712                      57.50       0.00       0.00       1.76      14.38      41.44      55.82        0.06     0.01   0.971
  2713                      57.50       0.00       0.00       1.76      14.38      41.44      55.82        0.06     0.01   0.971
  2714                      57.50       0.00       0.00       1.76      14.38      41.44      55.82        0.06     0.01   0.971
  2715                      57.50       0.00       0.00       1.76      14.38      41.44      55.82        0.06     0.01   0.971
  2716                      57.50       0.00       0.00       1.76      14.38      41.44      55.82        0.06     0.01   0.971
  2717                      57.50       0.00       0.00       1.76      14.38      41.44      55.82        0.06     0.01   0.971
  2718                      57.50       0.00       0.00       1.76      14.38      41.44      55.82        0.06     0.01   0.971
  2719                      57.50       0.00       0.00       1.76      14.38      41.44      55.82        0.06     0.01   0.971
  2721                      57.50       0.00       0.00       1.76      14.38      41.44      55.82        0.06     0.01   0.971
  2722                      57.50       0.00       0.00       1.76      14.38      41.44      55.82        0.06     0.01   0.971
  2723                      57.50       0.00       0.00       1.76      14.38      41.44      55.82        0.06     0.01   0.971
  2724                      57.50       0.00       0.00       1.76      14.38      41.44      55.82        0.06     0.01   0.971
  2725                      57.50       0.00       0.00       1.76      14.38      41.44      55.82        0.06     0.01   0.971
  2726                      57.50       0.00       0.00       1.76      14.38      41.44      55.82        0.06     0.01   0.971
  2727                      57.50       0.00       0.00       1.76      14.38      41.44      55.82        0.06     0.01   0.971
  2728                      57.50       0.00       0.00       1.76      14.38      41.44      55.82        0.06     0.01   0.971
  2729                      57.50       0.00       0.00       1.76      14.38      41.44      55.82        0.06     0.01   0.971
  2730                      57.50       0.00       0.00       1.76      14.38      41.44      55.82        0.06     0.01   0.971
  2731                      57.50       0.00       0.00       1.76      14.38      41.44      55.82        0.06     0.01   0.971
  2732                      57.50       0.00       0.00       1.76      14.38      41.44      55.82        0.06     0.01   0.971
  2733                      57.50       0.00       0.00       1.76      14.38      41.44      55.82        0.06     0.01   0.971
  2734                      57.50       0.00       0.00       1.76      14.38      41.44      55.82        0.06     0.01   0.971
  2735                      57.50       0.00       0.00       1.76      14.38      41.44      55.82        0.06     0.01   0.971
  2736                      57.50       0.00       0.00       1.76      14.38      41.44      55.82        0.06     0.01   0.971
  2737                      57.50       0.00       0.00       1.76      14.38      41.44      55.82        0.06     0.01   0.971
  2738                      57.50       0.00       0.00       1.76      14.38      41.44      55.82        0.06     0.01   0.971
  2739                      57.50       0.00       0.00       1.76      14.38      41.44      55.82        0.06     0.01   0.971
  2740                      57.50       0.00       0.00       1.76      14.38      41.44      55.82        0.06     0.01   0.971
  2741                      57.50       0.00       0.00       1.76      14.38      41.44      55.82        0.06     0.01   0.971
  2742                      57.50       0.00       0.00       1.76      14.38      41.44      55.82        0.06     0.01   0.971
  2743                      57.50       0.00       0.00       1.76      14.38      41.44      55.82        0.06     0.01   0.971
  2744                      57.50       0.00       0.00       1.76      14.38      41.44      55.82        0.06     0.01   0.971
  2745                      57.50       0.00       0.00       1.76      14.38      41.44      55.82        0.06     0.01   0.971
  2746                      57.50       0.00       0.00       1.76      14.38      41.44      55.82        0.06     0.01   0.971
  2747                      57.50       0.00       0.00       1.76      14.38      41.44      55.82        0.06     0.01   0.971
  2748                      57.50       0.00       0.00       1.76      14.38      41.44      55.82        0.06     0.01   0.971
  2749                      57.50       0.00       0.00       1.76      14.38      41.44      55.82        0.06     0.01   0.971
  2750                      57.50       0.00       0.00       1.76      14.38      41.44      55.82        0.06     0.01   0.971
  2751                      57.50       0.00       0.00       1.76      14.38      41.44      55.82        0.06     0.01   0.971
  2752                      57.50       0.00       0.00       1.76      14.38      41.44      55.82        0.06     0.01   0.971
  2753                      57.50       0.00       0.00       1.76      14.38      41.44      55.82        0.06     0.01   0.971
  2754                      57.50       0.00       0.00       1.76      14.38      41.44      55.82        0.06     0.01   0.971
  2755                      57.50       0.00       0.00       1.76      14.38      41.44      55.82        0.06     0.01   0.971
  2756                      57.50       0.00       0.00       1.76      14.38      41.44      55.82        0.06     0.01   0.971
  2964                      57.50       0.00       0.00       1.76      14.38      41.44      55.82        0.06     0.01   0.971
  2969                      57.50       0.00       0.00       1.76      14.38      41.44      55.82        0.06     0.01   0.971
  2970                      57.50       0.00       0.00       1.76      14.38      41.44      55.82        0.06     0.01   0.971
  2974                      57.50       0.00       0.00       1.76      14.38      41.44      55.82        0.06     0.01   0.971
  2975                      57.50       0.00       0.00       1.76      14.38      41.44      55.82        0.06     0.01   0.971
  2976                      57.50       0.00       0.00       1.76      14.38      41.44      55.82        0.06     0.01   0.971
  2977                      57.50       0.00       0.00       1.76      14.38      41.44      55.82        0.06     0.01   0.971
  2978                      57.50       0.00       0.00       1.76      14.38      41.44      55.82        0.06     0.01   0.971
  2979                      57.50       0.00       0.00       1.76      14.38      41.44      55.82        0.06     0.01   0.971
  2980                      57.50       0.00       0.00       1.76      14.38      41.44      55.82        0.06     0.01   0.971
  2981                      57.50       0.00       0.00       1.76      14.38      41.44      55.82        0.06     0.01   0.971
  2982                      57.50       0.00       0.00       1.76      14.38      41.44      55.82        0.06     0.01   0.971
  2984                      57.50       0.00       0.00       1.76      14.38      41.44      55.82        0.06     0.01   0.971
  2985                      57.50       0.00       0.00       1.76      14.38      41.44      55.82        0.06     0.01   0.971
  3925                      57.50       0.00       0.00       1.76      14.38      41.44      55.82        0.06     0.01   0.971
  3926                      57.50       0.00       0.00       1.76      14.38      41.44      55.82        0.06     0.01   0.971
  3927                      57.50       0.00       0.00       1.76      14.38      41.44      55.82        0.06     0.01   0.971
  3928                      57.50       0.00       0.00       1.76      14.38      41.44      55.82        0.06     0.01   0.971
  3929                      57.50       0.00       0.00       1.76      14.38      41.44      55.82        0.06     0.01   0.971
  3930                      57.50       0.00       0.00       1.76      14.38      41.44      55.82        0.06     0.01   0.971
  3931                      57.50       0.00       0.00       1.76      14.38      41.44      55.82        0.06     0.01   0.971
  3932                      57.50       0.00       0.00       1.76      14.38      41.44      55.82        0.06     0.01   0.971
  3933                      57.50       0.00       0.00       1.76      14.38      41.44      55.82        0.06     0.01   0.971
  3934                      57.50       0.00       0.00       1.76      14.38      41.44      55.82        0.06     0.01   0.971
  3935                      57.50       0.00       0.00       1.76      14.38      41.44      55.82        0.06     0.01   0.971
  3936                      57.50       0.00       0.00       1.76      14.38      41.44      55.82        0.06     0.01   0.971
  3937                      57.50       0.00       0.00       1.76      14.38      41.44      55.82        0.06     0.01   0.971
  3938                      57.50       0.00       0.00       1.76      14.38      41.44      55.82        0.06     0.01   0.971
  3939                      57.50       0.00       0.00       1.76      14.38      41.44      55.82        0.06     0.01   0.971
  3940                      57.50       0.00       0.00       1.76      14.38      41.44      55.82        0.06     0.01   0.971
  3941                      57.50       0.00       0.00       1.76      14.38      41.44      55.82        0.06     0.01   0.971
  3942                      57.50       0.00       0.00       1.76      14.38      41.44      55.82        0.06     0.01   0.971
  3943                      57.50       0.00       0.00       1.76      14.38      41.44      55.82        0.06     0.01   0.971
  3944                      57.50       0.00       0.00       1.76      14.38      41.44      55.82        0.06     0.01   0.971
  3945                      57.50       0.00       0.00       1.76      14.38      41.44      55.82        0.06     0.01   0.971
  3946                      57.50       0.00       0.00       1.76      14.38      41.44      55.82        0.06     0.01   0.971
  3947                      57.50       0.00       0.00       1.76      14.38      41.44      55.82        0.06     0.01   0.971
  3948                      57.50       0.00       0.00       1.76      14.38      41.44      55.82        0.06     0.01   0.971
  3949                      57.50       0.00       0.00       1.76      14.38      41.44      55.82        0.06     0.01   0.971
  3950                      57.50       0.00       0.00       1.76      14.38      41.44      55.82        0.06     0.01   0.971
  3951                      57.50       0.00       0.00       1.76      14.38      41.44      55.82        0.06     0.01   0.971
  3952                      57.50       0.00       0.00       1.76      14.38      41.44      55.82        0.06     0.01   0.971
  3953                      57.50       0.00       0.00       1.76      14.38      41.44      55.82        0.06     0.01   0.971
  3954                      57.50       0.00       0.00       1.76      14.38      41.44      55.82        0.06     0.01   0.971
  3955                      57.50       0.00       0.00       1.76      14.38      41.44      55.82        0.06     0.01   0.971
  3956                      57.50       0.00       0.00       1.76      14.38      41.44      55.82        0.06     0.01   0.971
  4032                      57.50       0.00       0.00       1.76      14.38      41.44      55.82        0.06     0.01   0.971
  4033                      57.50       0.00       0.00       1.76      14.38      41.44      55.82        0.06     0.01   0.971
  4041                      57.50       0.00       0.00       1.76      14.38      41.44      55.82        0.06     0.01   0.971
  4051                      57.50       0.00       0.00       1.76      14.38      41.44      55.82        0.06     0.01   0.971
  4055                      57.50       0.00       0.00       1.76      14.38      41.44      55.82        0.06     0.01   0.971
  4056                      57.50       0.00       0.00       1.76      14.38      41.44      55.82        0.06     0.01   0.971
  4058                      57.50       0.00       0.00       1.76      14.38      41.44      55.82        0.06     0.01   0.971
  4385                      57.50       0.00       0.00       1.76      14.38      41.44      55.82        0.06     0.01   0.971
  4386                      57.50       0.00       0.00       1.76      14.38      41.44      55.82        0.06     0.01   0.971
  4387                      57.50       0.00       0.00       1.76      14.38      41.44      55.82        0.06     0.01   0.971
  4388                      57.50       0.00       0.00       1.76      14.38      41.44      55.82        0.06     0.01   0.971
  4389                      57.50       0.00       0.00       1.76      14.38      41.44      55.82        0.06     0.01   0.971
  4390                      57.50       0.00       0.00       1.76      14.38      41.44      55.82        0.06     0.01   0.971
  4391                      57.50       0.00       0.00       1.76      14.38      41.44      55.82        0.06     0.01   0.971
  4392                      57.50       0.00       0.00       1.76      14.38      41.44      55.82        0.06     0.01   0.971
  4393                      57.50       0.00       0.00       1.76      14.38      41.44      55.82        0.06     0.01   0.971
  4394                      57.50       0.00       0.00       1.76      14.38      41.44      55.82        0.06     0.01   0.971
  4395                      57.50       0.00       0.00       1.76      14.38      41.44      55.82        0.06     0.01   0.971
  4396                      57.50       0.00       0.00       1.76      14.38      41.44      55.82        0.06     0.01   0.971
  4397                      57.50       0.00       0.00       1.76      14.38      41.44      55.82        0.06     0.01   0.971
  4398                      57.50       0.00       0.00       1.76      14.38      41.44      55.82        0.06     0.01   0.971
  4429                      57.50       0.00       0.00       1.76      14.38      41.44      55.82        0.06     0.01   0.971
  4430                      57.50       0.00       0.00       1.76      14.38      41.44      55.82        0.06     0.01   0.971
  4431                      57.50       0.00       0.00       1.76      14.38      41.44      55.82        0.06     0.01   0.971
  4432                      57.50       0.00       0.00       1.76      14.38      41.44      55.82        0.06     0.01   0.971
  4433                      57.50       0.00       0.00       1.76      14.38      41.44      55.82        0.06     0.01   0.971
  4434                      57.50       0.00       0.00       1.76      14.38      41.44      55.82        0.06     0.01   0.971
  4435                      57.50       0.00       0.00       1.76      14.38      41.44      55.82        0.06     0.01   0.971
  4436                      57.50       0.00       0.00       1.76      14.38      41.44      55.82        0.06     0.01   0.971
  4437                      57.50       0.00       0.00       1.76      14.38      41.44      55.82        0.06     0.01   0.971
  4438                      57.50       0.00       0.00       1.76      14.38      41.44      55.82        0.06     0.01   0.971
  4439                      57.50       0.00       0.00       1.76      14.38      41.44      55.82        0.06     0.01   0.971
  4440                      57.50       0.00       0.00       1.76      14.38      41.44      55.82        0.06     0.01   0.971
  4441                      57.50       0.00       0.00       1.76      14.38      41.44      55.82        0.06     0.01   0.971
  4442                      57.50       0.00       0.00       1.76      14.38      41.44      55.82        0.06     0.01   0.971
  4443                      57.50       0.00       0.00       1.76      14.38      41.44      55.82        0.06     0.01   0.971
  4444                      57.50       0.00       0.00       1.76      14.38      41.44      55.82        0.06     0.01   0.971
  4445                      57.50       0.00       0.00       1.76      14.38      41.44      55.82        0.06     0.01   0.971
  4446                      57.50       0.00       0.00       1.76      14.38      41.44      55.82        0.06     0.01   0.971
  4447                      57.50       0.00       0.00       1.76      14.38      41.44      55.82        0.06     0.01   0.971
  4448                      57.50       0.00       0.00       1.76      14.38      41.44      55.82        0.06     0.01   0.971
  4449                      57.50       0.00       0.00       1.76      14.38      41.44      55.82        0.06     0.01   0.971
  4450                      57.50       0.00       0.00       1.76      14.38      41.44      55.82        0.06     0.01   0.971
  4451                      57.50       0.00       0.00       1.76      14.38      41.44      55.82        0.06     0.01   0.971
  4452                      57.50       0.00       0.00       1.76      14.38      41.44      55.82        0.06     0.01   0.971
  4453                      57.50       0.00       0.00       1.76      14.38      41.44      55.82        0.06     0.01   0.971
  4454                      57.50       0.00       0.00       1.76      14.38      41.44      55.82        0.06     0.01   0.971
  4462                      57.50       0.00       0.00       1.76      14.38      41.44      55.82        0.06     0.01   0.971
  4463                      57.50       0.00       0.00       1.76      14.38      41.44      55.82        0.06     0.01   0.971
  4563                      57.50       0.00       0.00       1.76      14.38      41.44      55.82        0.06     0.01   0.971
  4564                      57.50       0.00       0.00       1.76      14.38      41.44      55.82        0.06     0.01   0.971
  4565                      57.50       0.00       0.00       1.76      14.38      41.44      55.82        0.06     0.01   0.971
  4566                      57.50       0.00       0.00       1.76      14.38      41.44      55.82        0.06     0.01   0.971
  4567                      57.50       0.00       0.00       1.76      14.38      41.44      55.82        0.06     0.01   0.971
  4568                      57.50       0.00       0.00       1.76      14.38      41.44      55.82        0.06     0.01   0.971
  4569                      57.50       0.00       0.00       1.76      14.38      41.44      55.82        0.06     0.01   0.971
  4570                      57.50       0.00       0.00       1.76      14.38      41.44      55.82        0.06     0.01   0.971
  4571                      57.50       0.00       0.00       1.76      14.38      41.44      55.82        0.06     0.01   0.971
  4572                      57.50       0.00       0.00       1.76      14.38      41.44      55.82        0.06     0.01   0.971
  4573                      57.50       0.00       0.00       1.76      14.38      41.44      55.82        0.06     0.01   0.971
  4574                      57.50       0.00       0.00       1.76      14.38      41.44      55.82        0.06     0.01   0.971
  4575                      57.50       0.00       0.00       1.76      14.38      41.44      55.82        0.06     0.01   0.971
  4576                      57.50       0.00       0.00       1.76      14.38      41.44      55.82        0.06     0.01   0.971
  4577                      57.50       0.00       0.00       1.76      14.38      41.44      55.82        0.06     0.01   0.971
  4578                      57.50       0.00       0.00       1.76      14.38      41.44      55.82        0.06     0.01   0.971
  4579                      57.50       0.00       0.00       1.76      14.38      41.44      55.82        0.06     0.01   0.971
  4580                      57.50       0.00       0.00       1.76      14.38      41.44      55.82        0.06     0.01   0.971
  4581                      57.50       0.00       0.00       1.76      14.38      41.44      55.82        0.06     0.01   0.971
  4624                      57.50       0.00       0.00       1.76      14.38      41.44      55.82        0.06     0.01   0.971
  4625                      57.50       0.00       0.00       1.76      14.38      41.44      55.82        0.06     0.01   0.971
  4644                      57.50       0.00       0.00       1.76      14.38      41.44      55.82        0.06     0.01   0.971
  4645                      57.50       0.00       0.00       1.76      14.38      41.44      55.82        0.06     0.01   0.971
  4646                      57.50       0.00       0.00       1.76      14.38      41.44      55.82        0.06     0.01   0.971
  4679                      57.50       0.00       0.00       1.76      14.38      41.44      55.82        0.06     0.01   0.971
  4680                      57.50       0.00       0.00       1.76      14.38      41.44      55.82        0.06     0.01   0.971
  4681                      57.50       0.00       0.00       1.76      14.38      41.44      55.82        0.06     0.01   0.971
  4682                      57.50       0.00       0.00       1.76      14.38      41.44      55.82        0.06     0.01   0.971
  4683                      57.50       0.00       0.00       1.76      14.38      41.44      55.82        0.06     0.01   0.971
  4711                      57.50       0.00       0.00       1.76      14.38      41.44      55.82        0.06     0.01   0.971
  4712                      57.50       0.00       0.00       1.76      14.38      41.44      55.82        0.06     0.01   0.971
  4713                      57.50       0.00       0.00       1.76      14.38      41.44      55.82        0.06     0.01   0.971
  4714                      57.50       0.00       0.00       1.76      14.38      41.44      55.82        0.06     0.01   0.971
  4715                      57.50       0.00       0.00       1.76      14.38      41.44      55.82        0.06     0.01   0.971
  4716                      57.50       0.00       0.00       1.76      14.38      41.44      55.82        0.06     0.01   0.971
  4717                      57.50       0.00       0.00       1.76      14.38      41.44      55.82        0.06     0.01   0.971
  4718                      57.50       0.00       0.00       1.76      14.38      41.44      55.82        0.06     0.01   0.971
  4722                      57.50       0.00       0.00       1.76      14.38      41.44      55.82        0.06     0.01   0.971
  4760                      57.50       0.00       0.00       1.76      14.38      41.44      55.82        0.06     0.01   0.971
  4761                      57.50       0.00       0.00       1.76      14.38      41.44      55.82        0.06     0.01   0.971
  4765                      57.50       0.00       0.00       1.76      14.38      41.44      55.82        0.06     0.01   0.971
  4766                      57.50       0.00       0.00       1.76      14.38      41.44      55.82        0.06     0.01   0.971
  4767                      57.50       0.00       0.00       1.76      14.38      41.44      55.82        0.06     0.01   0.971
  4768                      57.50       0.00       0.00       1.76      14.38      41.44      55.82        0.06     0.01   0.971
  4769                      57.50       0.00       0.00       1.76      14.38      41.44      55.82        0.06     0.01   0.971
  4855                      57.50       0.00       0.00       1.76      14.38      41.44      55.82        0.06     0.01   0.971
  4856                      57.50       0.00       0.00       1.76      14.38      41.44      55.82        0.06     0.01   0.971
  5284                      57.50       0.00       0.00       1.76      14.38      41.44      55.82        0.06     0.01   0.971
  5285                      57.50       0.00       0.00       1.76      14.38      41.44      55.82        0.06     0.01   0.971
  5286                      57.50       0.00       0.00       1.76      14.38      41.44      55.82        0.06     0.01   0.971
  5287                      57.50       0.00       0.00       1.76      14.38      41.44      55.82        0.06     0.01   0.971
  5288                      57.50       0.00       0.00       1.76      14.38      41.44      55.82        0.06     0.01   0.971
  5289                      57.50       0.00       0.00       1.76      14.38      41.44      55.82        0.06     0.01   0.971
  5290                      57.50       0.00       0.00       1.76      14.38      41.44      55.82        0.06     0.01   0.971
  5291                      57.50       0.00       0.00       1.76      14.38      41.44      55.82        0.06     0.01   0.971
  5292                      57.50       0.00       0.00       1.76      14.38      41.44      55.82        0.06     0.01   0.971
  5293                      57.50       0.00       0.00       1.76      14.38      41.44      55.82        0.06     0.01   0.971
  5294                      57.50       0.00       0.00       1.76      14.38      41.44      55.82        0.06     0.01   0.971
  5295                      57.50       0.00       0.00       1.76      14.38      41.44      55.82        0.06     0.01   0.971
  5296                      57.50       0.00       0.00       1.76      14.38      41.44      55.82        0.06     0.01   0.971
  5297                      57.50       0.00       0.00       1.76      14.38      41.44      55.82        0.06     0.01   0.971
  5298                      57.50       0.00       0.00       1.76      14.38      41.44      55.82        0.06     0.01   0.971
  5299                      57.50       0.00       0.00       1.76      14.38      41.44      55.82        0.06     0.01   0.971
  5300                      57.50       0.00       0.00       1.76      14.38      41.44      55.82        0.06     0.01   0.971
  5301                      57.50       0.00       0.00       1.76      14.38      41.44      55.82        0.06     0.01   0.971
  5302                      57.50       0.00       0.00       1.76      14.38      41.44      55.82        0.06     0.01   0.971
  5303                      57.50       0.00       0.00       1.76      14.38      41.44      55.82        0.06     0.01   0.971
  5304                      57.50       0.00       0.00       1.76      14.38      41.44      55.82        0.06     0.01   0.971
  5305                      57.50       0.00       0.00       1.76      14.38      41.44      55.82        0.06     0.01   0.971
  5306                      57.50       0.00       0.00       1.76      14.38      41.44      55.82        0.06     0.01   0.971
  5307                      57.50       0.00       0.00       1.76      14.38      41.44      55.82        0.06     0.01   0.971
  5308                      57.50       0.00       0.00       1.76      14.38      41.44      55.82        0.06     0.01   0.971
  5309                      57.50       0.00       0.00       1.76      14.38      41.44      55.82        0.06     0.01   0.971
  5310                      57.50       0.00       0.00       1.76      14.38      41.44      55.82        0.06     0.01   0.971
  5311                      57.50       0.00       0.00       1.76      14.38      41.44      55.82        0.06     0.01   0.971
  5312                      57.50       0.00       0.00       1.76      14.38      41.44      55.82        0.06     0.01   0.971
  5313                      57.50       0.00       0.00       1.76      14.38      41.44      55.82        0.06     0.01   0.971
  5314                      57.50       0.00       0.00       1.76      14.38      41.44      55.82        0.06     0.01   0.971
  5315                      57.50       0.00       0.00       1.76      14.38      41.44      55.82        0.06     0.01   0.971
  5316                      57.50       0.00       0.00       1.76      14.38      41.44      55.82        0.06     0.01   0.971
  5317                      57.50       0.00       0.00       1.76      14.38      41.44      55.82        0.06     0.01   0.971
  5318                      57.50       0.00       0.00       1.76      14.38      41.44      55.82        0.06     0.01   0.971
  5319                      57.50       0.00       0.00       1.76      14.38      41.44      55.82        0.06     0.01   0.971
  5320                      57.50       0.00       0.00       1.76      14.38      41.44      55.82        0.06     0.01   0.971
  5321                      57.50       0.00       0.00       1.76      14.38      41.44      55.82        0.06     0.01   0.971
  5322                      57.50       0.00       0.00       1.76      14.38      41.44      55.82        0.06     0.01   0.971
  5323                      57.50       0.00       0.00       1.76      14.38      41.44      55.82        0.06     0.01   0.971
  5324                      57.50       0.00       0.00       1.76      14.38      41.44      55.82        0.06     0.01   0.971
  5325                      57.50       0.00       0.00       1.76      14.38      41.44      55.82        0.06     0.01   0.971
  5326                      57.50       0.00       0.00       1.76      14.38      41.44      55.82        0.06     0.01   0.971
  5327                      57.50       0.00       0.00       1.76      14.38      41.44      55.82        0.06     0.01   0.971
  5328                      57.50       0.00       0.00       1.76      14.38      41.44      55.82        0.06     0.01   0.971
  5329                      57.50       0.00       0.00       1.76      14.38      41.44      55.82        0.06     0.01   0.971
  5330                      57.50       0.00       0.00       1.76      14.38      41.44      55.82        0.06     0.01   0.971
  5333                      57.50       0.00       0.00       1.76      14.38      41.44      55.82        0.06     0.01   0.971
  5334                      57.50       0.00       0.00       1.76      14.38      41.44      55.82        0.06     0.01   0.971
  6040                      57.50       0.00       0.00       1.76      14.38      41.44      55.82        0.06     0.01   0.971
  6041                      57.50       0.00       0.00       1.76      14.38      41.44      55.82        0.06     0.01   0.971
  6162                      57.50       0.00       0.00       1.76      14.38      41.44      55.82        0.06     0.01   0.971
  7207                      57.50       0.00       0.00       1.76      14.38      41.44      55.82        0.06     0.01   0.971
  7208                      57.50       0.00       0.00       1.76      14.38      41.44      55.82        0.06     0.01   0.971
  7213                      57.50       0.00       0.00       1.76      14.38      41.44      55.82        0.06     0.01   0.971
  7214                      57.50       0.00       0.00       1.76      14.38      41.44      55.82        0.06     0.01   0.971
  7219                      57.50       0.00       0.00       1.76      14.38      41.44      55.82        0.06     0.01   0.971
  7220                      57.50       0.00       0.00       1.76      14.38      41.44      55.82        0.06     0.01   0.971
  7221                      57.50       0.00       0.00       1.76      14.38      41.44      55.82        0.06     0.01   0.971
  7225                      57.50       0.00       0.00       1.76      14.38      41.44      55.82        0.06     0.01   0.971
  7229                      57.50       0.00       0.00       1.76      14.38      41.44      55.82        0.06     0.01   0.971
  7231                      57.50       0.00       0.00       1.76      14.38      41.44      55.82        0.06     0.01   0.971
  7268                      57.50       0.00       0.00       1.76      14.38      41.44      55.82        0.06     0.01   0.971
  7269                      57.50       0.00       0.00       1.76      14.38      41.44      55.82        0.06     0.01   0.971
  7271                      57.50       0.00       0.00       1.76      14.38      41.44      55.82        0.06     0.01   0.971
  7272                      57.50       0.00       0.00       1.76      14.38      41.44      55.82        0.06     0.01   0.971
  7273                      57.50       0.00       0.00       1.76      14.38      41.44      55.82        0.06     0.01   0.971
  7433                      57.50       0.00       0.00       1.76      14.38      41.44      55.82        0.06     0.01   0.971
  7434                      57.50       0.00       0.00       1.76      14.38      41.44      55.82        0.06     0.01   0.971
  7544                      57.50       0.00       0.00       1.76      14.38      41.44      55.82        0.06     0.01   0.971
  7545                      57.50       0.00       0.00       1.76      14.38      41.44      55.82        0.06     0.01   0.971
  8737                      57.50       0.00       0.00       1.76      14.38      41.44      55.82        0.06     0.01   0.971
  8818                      57.50       0.00       0.00       1.76      14.38      41.44      55.82        0.06     0.01   0.971
  9942                      57.50       0.00       0.00       1.76      14.38      41.44      55.82        0.06     0.01   0.971
  9957                      57.50       0.00       0.00       1.76      14.38      41.44      55.82        0.06     0.01   0.971
  4399                      57.50       0.00       0.00       1.69      14.37      41.49      55.86        0.02     0.00   0.972
  4400                      57.50       0.00       0.00       1.69      14.37      41.49      55.86        0.02     0.00   0.972
  4401                      57.50       0.00       0.00       1.69      14.37      41.49      55.86        0.02     0.00   0.972
  4402                      57.50       0.00       0.00       1.69      14.37      41.49      55.86        0.02     0.00   0.972
  4403                      57.50       0.00       0.00       1.69      14.37      41.49      55.86        0.02     0.00   0.972
  4404                      57.50       0.00       0.00       1.69      14.37      41.49      55.86        0.02     0.00   0.972
  4405                      57.50       0.00       0.00       1.69      14.37      41.49      55.86        0.02     0.00   0.972
  4406                      57.50       0.00       0.00       1.69      14.37      41.49      55.86        0.02     0.00   0.972
  4407                      57.50       0.00       0.00       1.69      14.37      41.49      55.86        0.02     0.00   0.972
  4408                      57.50       0.00       0.00       1.69      14.37      41.49      55.86        0.02     0.00   0.972
  4409                      57.50       0.00       0.00       1.69      14.37      41.49      55.86        0.02     0.00   0.972
  4410                      57.50       0.00       0.00       1.69      14.37      41.49      55.86        0.02     0.00   0.972
  4411                      57.50       0.00       0.00       1.69      14.37      41.49      55.86        0.02     0.00   0.972
  4412                      57.50       0.00       0.00       1.69      14.37      41.49      55.86        0.02     0.00   0.972
  4423                      57.50       0.00       0.00       1.69      14.37      41.49      55.86        0.02     0.00   0.972
  4424                      57.50       0.00       0.00       1.69      14.37      41.49      55.86        0.02     0.00   0.972
  4425                      57.50       0.00       0.00       1.69      14.37      41.49      55.86        0.02     0.00   0.972
  4426                      57.50       0.00       0.00       1.69      14.37      41.49      55.86        0.02     0.00   0.972
  4427                      57.50       0.00       0.00       1.69      14.37      41.49      55.86        0.02     0.00   0.972
  4428                      57.50       0.00       0.00       1.69      14.37      41.49      55.86        0.02     0.00   0.972
  4455                      57.50       0.00       0.00       1.69      14.37      41.49      55.86        0.02     0.00   0.972
  4456                      57.50       0.00       0.00       1.69      14.37      41.49      55.86        0.02     0.00   0.972
  4457                      57.50       0.00       0.00       1.69      14.37      41.49      55.86        0.02     0.00   0.972
  4458                      57.50       0.00       0.00       1.69      14.37      41.49      55.86        0.02     0.00   0.972
  4459                      57.50       0.00       0.00       1.69      14.37      41.49      55.86        0.02     0.00   0.972
  4460                      57.50       0.00       0.00       1.69      14.37      41.49      55.86        0.02     0.00   0.972
  4461                      57.50       0.00       0.00       1.69      14.37      41.49      55.86        0.02     0.00   0.972
  4464                      57.50       0.00       0.00       1.69      14.37      41.49      55.86        0.02     0.00   0.972
  4465                      57.50       0.00       0.00       1.69      14.37      41.49      55.86        0.02     0.00   0.972
  4466                      57.50       0.00       0.00       1.69      14.37      41.49      55.86        0.02     0.00   0.972
  4467                      57.50       0.00       0.00       1.69      14.37      41.49      55.86        0.02     0.00   0.972
  4468                      57.50       0.00       0.00       1.69      14.37      41.49      55.86        0.02     0.00   0.972
  4469                      57.50       0.00       0.00       1.69      14.37      41.49      55.86        0.02     0.00   0.972
  4470                      57.50       0.00       0.00       1.69      14.37      41.49      55.86        0.02     0.00   0.972
  4471                      57.50       0.00       0.00       1.69      14.37      41.49      55.86        0.02     0.00   0.972
  4472                      57.50       0.00       0.00       1.69      14.37      41.49      55.86        0.02     0.00   0.972
  4473                      57.50       0.00       0.00       1.69      14.37      41.49      55.86        0.02     0.00   0.972
  4474                      57.50       0.00       0.00       1.69      14.37      41.49      55.86        0.02     0.00   0.972
  4628                      57.50       0.00       0.00       1.69      14.37      41.49      55.86        0.02     0.00   0.972
  4631                      57.50       0.00       0.00       1.69      14.37      41.49      55.86        0.02     0.00   0.972
  4632                      57.50       0.00       0.00       1.69      14.37      41.49      55.86        0.02     0.00   0.972
  4633                      57.50       0.00       0.00       1.69      14.37      41.49      55.86        0.02     0.00   0.972
  4634                      57.50       0.00       0.00       1.69      14.37      41.49      55.86        0.02     0.00   0.972
  4637                      57.50       0.00       0.00       1.69      14.37      41.49      55.86        0.02     0.00   0.972
  4686                      57.50       0.00       0.00       1.69      14.37      41.49      55.86        0.02     0.00   0.972
  4687                      57.50       0.00       0.00       1.69      14.37      41.49      55.86        0.02     0.00   0.972
  4688                      57.50       0.00       0.00       1.69      14.37      41.49      55.86        0.02     0.00   0.972
  5032                      57.50       0.00       0.00       1.69      14.37      41.49      55.86        0.02     0.00   0.972
  5331                      57.50       0.00       0.00       1.69      14.37      41.49      55.86        0.02     0.00   0.972
  5332                      57.50       0.00       0.00       1.69      14.37      41.49      55.86        0.02     0.00   0.972
  5335                      57.50       0.00       0.00       1.69      14.37      41.49      55.86        0.02     0.00   0.972
  5336                      57.50       0.00       0.00       1.69      14.37      41.49      55.86        0.02     0.00   0.972
  5337                      57.50       0.00       0.00       1.69      14.37      41.49      55.86        0.02     0.00   0.972
  5338                      57.50       0.00       0.00       1.69      14.37      41.49      55.86        0.02     0.00   0.972
  5339                      57.50       0.00       0.00       1.69      14.37      41.49      55.86        0.02     0.00   0.972
  5340                      57.50       0.00       0.00       1.69      14.37      41.49      55.86        0.02     0.00   0.972
  5341                      57.50       0.00       0.00       1.69      14.37      41.49      55.86        0.02     0.00   0.972
  5342                      57.50       0.00       0.00       1.69      14.37      41.49      55.86        0.02     0.00   0.972
  5343                      57.50       0.00       0.00       1.69      14.37      41.49      55.86        0.02     0.00   0.972
  5344                      57.50       0.00       0.00       1.69      14.37      41.49      55.86        0.02     0.00   0.972
  5345                      57.50       0.00       0.00       1.69      14.37      41.49      55.86        0.02     0.00   0.972
  5346                      57.50       0.00       0.00       1.69      14.37      41.49      55.86        0.02     0.00   0.972
  5347                      57.50       0.00       0.00       1.69      14.37      41.49      55.86        0.02     0.00   0.972
  5348                      57.50       0.00       0.00       1.69      14.37      41.49      55.86        0.02     0.00   0.972
  5349                      57.50       0.00       0.00       1.69      14.37      41.49      55.86        0.02     0.00   0.972
  5350                      57.50       0.00       0.00       1.69      14.37      41.49      55.86        0.02     0.00   0.972
  6088                      57.50       0.00       0.00       1.69      14.37      41.49      55.86        0.02     0.00   0.972
  7275                      57.50       0.00       0.00       1.69      14.37      41.49      55.86        0.02     0.00   0.972
  9955                      57.50       0.00       0.00       1.69      14.37      41.49      55.86        0.02     0.00   0.972
  9956                      57.50       0.00       0.00       1.69      14.37      41.49      55.86        0.02     0.00   0.972
  
  
  ****************************
  Subcatchment Washoff Summary
  ****************************
  
  ----------------------------------
                                 COD
  Subcatchment                    kg
  ----------------------------------
  2707                        14.680
  2708                        14.680
  2709                        14.680
  2710                        14.680
  2712                        14.680
  2713                        14.680
  2714                        14.680
  2715                        14.680
  2716                        14.680
  2717                        14.680
  2718                        14.680
  2719                        14.680
  2721                        14.680
  2722                        14.680
  2723                        14.680
  2724                        14.680
  2725                        14.680
  2726                        14.680
  2727                        14.680
  2728                        14.680
  2729                        14.680
  2730                        14.680
  2731                        14.680
  2732                        14.680
  2733                        14.680
  2734                        14.680
  2735                        14.680
  2736                        14.680
  2737                        14.680
  2738                        14.680
  2739                        14.680
  2740                        14.680
  2741                        14.680
  2742                        14.680
  2743                        14.680
  2744                        14.680
  2745                        14.680
  2746                        14.680
  2747                        14.680
  2748                        14.680
  2749                        14.680
  2750                        14.680
  2751                        14.680
  2752                        14.680
  2753                        14.680
  2754                        14.680
  2755                        14.680
  2756                        14.680
  2964                        14.680
  2969                        14.680
  2970                        14.680
  2974                        14.680
  2975                        14.680
  2976                        14.680
  2977                        14.680
  2978                        14.680
  2979                        14.680
  2980                        14.680
  2981                        14.680
  2982                        14.680
  2984                        14.680
  2985                        14.680
  3925                        14.680
  3926                        14.680
  3927                        14.680
  3928                        14.680
  3929                        14.680
  3930                        14.680
  3931                        14.680
  3932                        14.680
  3933                        14.680
  3934                        14.680
  3935                        14.680
  3936                        14.680
  3937                        14.680
  3938                        14.680
  3939                        14.680
  3940                        14.680
  3941                        14.680
  3942                        14.680
  3943                        14.680
  3944                        14.680
  3945                        14.680
  3946                        14.680
  3947                        14.680
  3948                        14.680
  3949                        14.680
  3950                        14.680
  3951                        14.680
  3952                        14.680
  3953                        14.680
  3954                        14.680
  3955                        14.680
  3956                        14.680
  4032                        14.680
  4033                        14.680
  4041                        14.680
  4051                        14.680
  4055                        14.680
  4056                        14.680
  4058                        14.680
  4385                        14.680
  4386                        14.680
  4387                        14.680
  4388                        14.680
  4389                        14.680
  4390                        14.680
  4391                        14.680
  4392                        14.680
  4393                        14.680
  4394                        14.680
  4395                        14.680
  4396                        14.680
  4397                        14.680
  4398                        14.680
  4429                        14.680
  4430                        14.680
  4431                        14.680
  4432                        14.680
  4433                        14.680
  4434                        14.680
  4435                        14.680
  4436                        14.680
  4437                        14.680
  4438                        14.680
  4439                        14.680
  4440                        14.680
  4441                        14.680
  4442                        14.680
  4443                        14.680
  4444                        14.680
  4445                        14.680
  4446                        14.680
  4447                        14.680
  4448                        14.680
  4449                        14.680
  4450                        14.680
  4451                        14.680
  4452                        14.680
  4453                        14.680
  4454                        14.680
  4462                        14.680
  4463                        14.680
  4563                        14.680
  4564                        14.680
  4565                        14.680
  4566                        14.680
  4567                        14.680
  4568                        14.680
  4569                        14.680
  4570                        14.680
  4571                        14.680
  4572                        14.680
  4573                        14.680
  4574                        14.680
  4575                        14.680
  4576                        14.680
  4577                        14.680
  4578                        14.680
  4579                        14.680
  4580                        14.680
  4581                        14.680
  4624                        14.680
  4625                        14.680
  4644                        14.680
  4645                        14.680
  4646                        14.680
  4679                        14.680
  4680                        14.680
  4681                        14.680
  4682                        14.680
  4683                        14.680
  4711                        14.680
  4712                        14.680
  4713                        14.680
  4714                        14.680
  4715                        14.680
  4716                        14.680
  4717                        14.680
  4718                        14.680
  4722                        14.680
  4760                        14.680
  4761                        14.680
  4765                        14.680
  4766                        14.680
  4767                        14.680
  4768                        14.680
  4769                        14.680
  4855                        14.680
  4856                        14.680
  5284                        14.680
  5285                        14.680
  5286                        14.680
  5287                        14.680
  5288                        14.680
  5289                        14.680
  5290                        14.680
  5291                        14.680
  5292                        14.680
  5293                        14.680
  5294                        14.680
  5295                        14.680
  5296                        14.680
  5297                        14.680
  5298                        14.680
  5299                        14.680
  5300                        14.680
  5301                        14.680
  5302                        14.680
  5303                        14.680
  5304                        14.680
  5305                        14.680
  5306                        14.680
  5307                        14.680
  5308                        14.680
  5309                        14.680
  5310                        14.680
  5311                        14.680
  5312                        14.680
  5313                        14.680
  5314                        14.680
  5315                        14.680
  5316                        14.680
  5317                        14.680
  5318                        14.680
  5319                        14.680
  5320                        14.680
  5321                        14.680
  5322                        14.680
  5323                        14.680
  5324                        14.680
  5325                        14.680
  5326                        14.680
  5327                        14.680
  5328                        14.680
  5329                        14.680
  5330                        14.680
  5333                        14.680
  5334                        14.680
  6040                        14.680
  6041                        14.680
  6162                        14.680
  7207                        14.680
  7208                        14.680
  7213                        14.680
  7214                        14.680
  7219                        14.680
  7220                        14.680
  7221                        14.680
  7225                        14.680
  7229                        14.680
  7231                        14.680
  7268                        14.680
  7269                        14.680
  7271                        14.680
  7272                        14.680
  7273                        14.680
  7433                        14.680
  7434                        14.680
  7544                        14.680
  7545                        14.680
  8737                        14.680
  8818                        14.680
  9942                        14.680
  9957                        14.680
  4399                         4.408
  4400                         4.408
  4401                         4.408
  4402                         4.408
  4403                         4.408
  4404                         4.408
  4405                         4.408
  4406                         4.408
  4407                         4.408
  4408                         4.408
  4409                         4.408
  4410                         4.408
  4411                         4.408
  4412                         4.408
  4423                         4.408
  4424                         4.408
  4425                         4.408
  4426                         4.408
  4427                         4.408
  4428                         4.408
  4455                         4.408
  4456                         4.408
  4457                         4.408
  4458                         4.408
  4459                         4.408
  4460                         4.408
  4461                         4.408
  4464                         4.408
  4465                         4.408
  4466                         4.408
  4467                         4.408
  4468                         4.408
  4469                         4.408
  4470                         4.408
  4471                         4.408
  4472                         4.408
  4473                         4.408
  4474                         4.408
  4628                         4.408
  4631                         4.408
  4632                         4.408
  4633                         4.408
  4634                         4.408
  4637                         4.408
  4686                         4.408
  4687                         4.408
  4688                         4.408
  5032                         4.408
  5331                         4.408
  5332                         4.408
  5335                         4.408
  5336                         4.408
  5337                         4.408
  5338                         4.408
  5339                         4.408
  5340                         4.408
  5341                         4.408
  5342                         4.408
  5343                         4.408
  5344                         4.408
  5345                         4.408
  5346                         4.408
  5347                         4.408
  5348                         4.408
  5349                         4.408
  5350                         4.408
  6088                         4.408
  7275                         4.408
  9955                         4.408
  9956                         4.408
  ----------------------------------
  System                    4198.608
  
  
  ******************
  Node Depth Summary
  ******************
  
  ---------------------------------------------------------------------------------
                                 Average  Maximum  Maximum  Time of Max    Reported
                                   Depth    Depth      HGL   Occurrence   Max Depth
  Node                 Type       Meters   Meters   Meters  days hr:min      Meters
  ---------------------------------------------------------------------------------
  Node_02706           JUNCTION     2.71     4.53   101.37     0  03:12        0.00
  Node_02707           JUNCTION     1.00     2.47   101.90     0  02:30        0.00
  Node_02708           JUNCTION     0.87     2.54   102.30     0  02:30        0.00
  Node_02709           JUNCTION     0.97     2.76   102.39     0  02:30        0.00
  Node_02711           JUNCTION     0.66     2.46   102.37     0  02:30        0.00
  Node_02712           JUNCTION     0.67     2.45   102.35     0  02:30        0.00
  Node_02713           JUNCTION     0.71     2.43   102.28     0  02:30        0.00
  Node_02714           JUNCTION     0.35     1.90   102.30     0  02:30        0.00
  Node_02715           JUNCTION     0.72     2.29   102.10     0  02:30        0.00
  Node_02716           JUNCTION     0.77     2.22   101.94     0  02:30        0.00
  Node_02717           JUNCTION     0.83     2.27   101.90     0  02:31        0.00
  Node_02718           JUNCTION     0.84     2.31   101.91     0  02:31        0.00
  Node_02720           JUNCTION     0.86     2.35   101.91     0  02:30        0.00
  Node_02721           JUNCTION     1.16     2.68   101.92     0  02:30        0.00
  Node_02722           JUNCTION     0.14     0.19   101.99     0  02:31        0.00
  Node_02723           JUNCTION     1.10     2.60   101.89     0  02:30        0.00
  Node_02724           JUNCTION     0.95     2.42   101.84     0  02:30        0.00
  Node_02725           JUNCTION     0.98     2.40   101.77     0  02:30        0.00
  Node_02726           JUNCTION     1.05     2.44   101.70     0  02:30        0.00
  Node_02727           JUNCTION     1.15     2.49   101.61     0  02:30        0.00
  Node_02728           JUNCTION     0.52     1.54   101.62     0  02:30        0.00
  Node_02729           JUNCTION     1.19     2.46   101.52     0  02:30        0.00
  Node_02730           JUNCTION     1.21     2.39   101.42     0  02:30        0.00
  Node_02731           JUNCTION     1.62     2.70   101.29     0  02:30        0.00
  Node_02732           JUNCTION     1.18     2.19   101.21     0  02:30        0.00
  Node_02733           JUNCTION     1.17     2.25   101.25     0  03:15        0.00
  Node_02734           JUNCTION     1.46     2.57   101.28     0  03:15        0.00
  Node_02735           JUNCTION     1.35     2.47   101.28     0  03:15        0.00
  Node_02736           JUNCTION     1.54     2.69   101.30     0  03:14        0.00
  Node_02737           JUNCTION     1.51     2.69   101.31     0  03:12        0.00
  Node_02738           JUNCTION     1.34     2.57   101.34     0  03:14        0.00
  Node_02739           JUNCTION     1.20     2.49   101.35     0  03:15        0.00
  Node_02740           JUNCTION     1.20     2.52   101.36     0  03:12        0.00
  Node_02741           JUNCTION     0.87     2.07   101.36     0  03:12        0.00
  Node_02742           JUNCTION     1.21     2.56   101.37     0  03:14        0.00
  Node_02743           JUNCTION     1.61     3.00   101.37     0  03:14        0.00
  Node_02744           JUNCTION     0.80     2.03   101.38     0  03:14        0.00
  Node_02745           JUNCTION     1.33     2.76   101.38     0  03:14        0.00
  Node_02746           JUNCTION     1.22     2.69   101.38     0  03:14        0.00
  Node_02747           JUNCTION     0.27     1.03   101.38     0  03:14        0.00
  Node_02748           JUNCTION     0.23     0.93   101.38     0  03:14        0.00
  Node_02749           JUNCTION     1.22     2.74   101.38     0  03:14        0.00
  Node_02750           JUNCTION     1.21     2.77   101.38     0  03:13        0.00
  Node_02751           JUNCTION     1.18     2.78   101.38     0  03:14        0.00
  Node_02752           JUNCTION     1.18     2.82   101.37     0  03:15        0.00
  Node_02753           JUNCTION     1.19     2.89   101.37     0  03:15        0.00
  Node_02754           JUNCTION     1.23     3.05   101.37     0  03:13        0.00
  Node_02755           JUNCTION     2.16     3.97   101.37     0  03:12        0.00
  Node_02963           JUNCTION     0.65     2.00   101.91     0  02:31        0.00
  Node_02968           JUNCTION     0.40     1.23   101.35     0  03:14        0.00
  Node_02969           JUNCTION     0.49     1.50   101.38     0  03:14        0.00
  Node_02973           JUNCTION     1.68     3.48   101.36     0  03:13        0.00
  Node_02974           JUNCTION     1.80     3.92   101.05     0  03:15        0.00
  Node_02975           JUNCTION     1.81     3.93   101.06     0  03:15        0.00
  Node_02976           JUNCTION     1.90     4.00   101.19     0  03:15        0.00
  Node_02977           JUNCTION     1.97     4.07   101.40     0  03:15        0.00
  Node_02978           JUNCTION     1.88     3.98   101.51     0  03:13        0.00
  Node_02979           JUNCTION     1.71     3.83   100.95     0  03:15        0.00
  Node_02980           JUNCTION     1.60     3.72   100.81     0  03:15        0.00
  Node_02981           JUNCTION     1.57     3.72   100.67     0  03:15        0.00
  Node_02983           JUNCTION     0.40     1.21   101.33     0  03:12        0.00
  Node_02984           JUNCTION     2.30     4.38   101.36     0  03:15        0.00
  Node_03924           JUNCTION     0.24     1.00   101.82     0  02:21        0.00
  Node_03925           JUNCTION     0.62     2.06   102.43     0  02:46        0.00
  Node_03926           JUNCTION     0.17     0.96   102.43     0  02:49        0.00
  Node_03927           JUNCTION     0.60     2.05   102.43     0  02:53        0.00
  Node_03928           JUNCTION     0.62     2.08   102.42     0  02:44        0.00
  Node_03929           JUNCTION     0.63     2.10   102.41     0  02:52        0.00
  Node_03930           JUNCTION     0.65     2.13   102.39     0  02:45        0.00
  Node_03931           JUNCTION     0.65     2.13   102.37     0  02:44        0.00
  Node_03932           JUNCTION     0.68     2.16   102.32     0  02:50        0.00
  Node_03933           JUNCTION     0.68     2.14   102.26     0  02:34        0.00
  Node_03934           JUNCTION     0.30     1.40   102.26     0  02:35        0.00
  Node_03935           JUNCTION     0.74     2.17   102.15     0  02:52        0.00
  Node_03936           JUNCTION     0.75     2.12   102.05     0  03:10        0.00
  Node_03937           JUNCTION     1.30     1.77   101.93     0  02:24        0.00
  Node_03938           JUNCTION     1.50     3.25   102.44     0  02:54        0.00
  Node_03939           JUNCTION     1.61     3.39   102.42     0  02:34        0.00
  Node_03940           JUNCTION     1.68     3.47   102.40     0  02:42        0.00
  Node_03941           JUNCTION     1.76     3.53   102.34     0  02:19        0.00
  Node_03942           JUNCTION     1.78     3.54   102.29     0  02:36        0.00
  Node_03943           JUNCTION     1.87     3.58   102.19     0  01:55        0.00
  Node_03944           JUNCTION     1.96     3.69   102.17     0  01:55        0.00
  Node_03945           JUNCTION     2.03     3.78   102.20     0  02:19        0.00
  Node_03946           JUNCTION     2.09     3.88   102.24     0  03:09        0.00
  Node_03947           JUNCTION     2.39     4.38   102.27     0  03:14        0.00
  Node_03948           JUNCTION     2.35     4.42   102.27     0  03:14        0.00
  Node_03949           JUNCTION     2.46     4.57   102.27     0  03:08        0.00
  Node_03950           JUNCTION     2.32     4.49   102.26     0  03:15        0.00
  Node_03951           JUNCTION     2.30     4.55   102.24     0  03:13        0.00
  Node_03952           JUNCTION     2.29     4.60   102.19     0  03:13        0.00
  Node_03953           JUNCTION     2.18     4.53   102.11     0  03:13        0.00
  Node_03954           JUNCTION     3.02     5.37   101.95     0  03:14        0.00
  Node_03955           JUNCTION     1.92     4.25   101.74     0  03:14        0.00
  Node_04031           JUNCTION     0.40     1.03   102.26     0  02:58        0.00
  Node_04032           JUNCTION     2.04     3.91   102.27     0  03:13        0.00
  Node_04040           JUNCTION     0.73     1.73   102.28     0  02:53        0.00
  Node_04050           JUNCTION     0.40     1.48   102.45     0  03:53        0.00
  Node_04054           JUNCTION     0.24     1.28   102.42     0  02:52        0.00
  Node_04055           JUNCTION     0.39     1.51   102.32     0  02:33        0.00
  Node_04057           JUNCTION     0.43     1.60   101.91     0  02:22        0.00
  Node_04384           JUNCTION     2.07     4.14   101.72     0  03:13        0.00
  Node_04385           JUNCTION     1.79     3.85   101.76     0  03:13        0.00
  Node_04386           JUNCTION     1.78     3.84   101.78     0  03:13        0.00
  Node_04387           JUNCTION     1.78     3.83   101.79     0  03:12        0.00
  Node_04388           JUNCTION     1.78     3.82   101.82     0  03:12        0.00
  Node_04389           JUNCTION     0.45     1.46   101.82     0  03:14        0.00
  Node_04390           JUNCTION     1.77     3.80   101.82     0  03:14        0.00
  Node_04391           JUNCTION     1.77     3.78   101.84     0  03:08        0.00
  Node_04392           JUNCTION     1.88     3.89   101.85     0  03:14        0.00
  Node_04393           JUNCTION     1.76     3.73   101.85     0  03:12        0.00
  Node_04394           JUNCTION     0.73     2.20   101.85     0  03:10        0.00
  Node_04395           JUNCTION     1.74     3.70   101.85     0  03:13        0.00
  Node_04396           JUNCTION     1.72     3.65   101.85     0  03:05        0.00
  Node_04397           JUNCTION     0.60     1.96   101.85     0  03:06        0.00
  Node_04428           JUNCTION     1.73     3.64   101.85     0  03:11        0.00
  Node_04429           JUNCTION     1.72     3.60   101.85     0  03:00        0.00
  Node_04430           JUNCTION     1.70     3.57   101.85     0  03:05        0.00
  Node_04431           JUNCTION     1.48     3.28   101.85     0  02:59        0.00
  Node_04432           JUNCTION     1.39     3.16   101.84     0  02:59        0.00
  Node_04433           JUNCTION     1.22     2.96   101.84     0  03:14        0.00
  Node_04434           JUNCTION     1.50     3.25   101.84     0  03:10        0.00
  Node_04435           JUNCTION     1.34     3.05   101.82     0  03:07        0.00
  Node_04436           JUNCTION     1.74     3.42   101.82     0  03:14        0.00
  Node_04437           JUNCTION     1.87     3.51   101.80     0  02:59        0.00
  Node_04438           JUNCTION     2.16     3.79   101.80     0  03:09        0.00
  Node_04439           JUNCTION     1.21     2.84   101.81     0  02:58        0.00
  Node_04440           JUNCTION     1.20     2.80   101.82     0  03:05        0.00
  Node_04441           JUNCTION     0.94     2.49   101.82     0  03:07        0.00
  Node_04442           JUNCTION     1.27     2.86   101.83     0  03:14        0.00
  Node_04443           JUNCTION     1.12     2.69   101.82     0  02:59        0.00
  Node_04444           JUNCTION     1.11     2.65   101.83     0  03:06        0.00
  Node_04445           JUNCTION     1.04     2.57   101.84     0  03:03        0.00
  Node_04446           JUNCTION     1.01     2.51   101.84     0  02:56        0.00
  Node_04447           JUNCTION     0.95     2.41   101.85     0  02:24        0.00
  Node_04448           JUNCTION     0.97     2.44   101.89     0  02:24        0.00
  Node_04449           JUNCTION     0.98     2.46   101.92     0  02:24        0.00
  Node_04450           JUNCTION     1.13     2.61   101.93     0  02:24        0.00
  Node_04451           JUNCTION     0.94     2.39   101.94     0  02:24        0.00
  Node_04452           JUNCTION     0.71     2.16   101.98     0  02:24        0.00
  Node_04453           JUNCTION     0.52     1.77   101.99     0  02:24        0.00
  Node_04461           JUNCTION     0.89     2.29   101.91     0  02:24        0.00
  Node_04462           JUNCTION     0.88     2.29   101.94     0  02:24        0.00
  Node_04562           JUNCTION     0.88     2.46   102.05     0  02:22        0.00
  Node_04563           JUNCTION     1.21     2.92   102.04     0  02:22        0.00
  Node_04564           JUNCTION     1.01     2.68   102.07     0  02:22        0.00
  Node_04565           JUNCTION     1.02     2.72   102.08     0  02:22        0.00
  Node_04566           JUNCTION     1.16     2.88   102.07     0  02:22        0.00
  Node_04567           JUNCTION     1.12     2.84   102.06     0  02:22        0.00
  Node_04568           JUNCTION     1.13     2.84   102.03     0  02:22        0.00
  Node_04569           JUNCTION     1.29     3.04   102.01     0  02:22        0.00
  Node_04570           JUNCTION     0.81     2.29   102.02     0  02:22        0.00
  Node_04571           JUNCTION     1.30     2.99   101.92     0  02:22        0.00
  Node_04572           JUNCTION     2.69     4.43   101.96     0  02:24        0.00
  Node_04573           JUNCTION     2.36     4.15   101.99     0  02:24        0.00
  Node_04574           JUNCTION     2.60     3.72   102.02     0  02:25        0.00
  Node_04575           JUNCTION     2.85     4.70   102.02     0  02:25        0.00
  Node_04576           JUNCTION     1.47     3.33   101.98     0  02:25        0.00
  Node_04577           JUNCTION     1.51     3.36   101.94     0  03:03        0.00
  Node_04578           JUNCTION     1.54     3.42   101.93     0  03:09        0.00
  Node_04579           JUNCTION     1.61     3.50   101.91     0  03:14        0.00
  Node_04580           JUNCTION     0.70     1.98   101.76     0  02:24        0.00
  Node_04623           JUNCTION     0.63     2.10   101.76     0  03:14        0.00
  Node_04624           JUNCTION     0.84     2.38   101.84     0  02:53        0.00
  Node_04643           JUNCTION     0.66     2.03   101.93     0  02:24        0.00
  Node_04644           JUNCTION     0.67     1.99   101.83     0  02:59        0.00
  Node_04645           JUNCTION     0.86     2.05   101.65     0  02:24        0.00
  Node_04678           JUNCTION     0.69     2.13   101.85     0  02:57        0.00
  Node_04679           JUNCTION     0.42     1.58   101.76     0  03:14        0.00
  Node_04680           JUNCTION     1.84     3.91   101.68     0  03:13        0.00
  Node_04681           JUNCTION     1.82     3.90   101.62     0  03:13        0.00
  Node_04682           JUNCTION     0.29     0.99   102.00     0  02:25        0.00
  Node_04710           JUNCTION     0.67     2.05   102.04     0  04:29        0.00
  Node_04711           JUNCTION     0.72     2.61   102.60     0  04:40        0.00
  Node_04712           JUNCTION     0.73     2.61   102.62     0  02:27        0.00
  Node_04713           JUNCTION     0.69     2.58   102.63     0  04:29        0.00
  Node_04714           JUNCTION     0.72     2.60   102.65     0  04:23        0.00
  Node_04715           JUNCTION     0.69     2.52   102.61     0  04:24        0.00
  Node_04716           JUNCTION     0.69     2.46   102.59     0  04:30        0.00
  Node_04717           JUNCTION     0.37     1.38   101.68     0  02:28        0.00
  Node_04721           JUNCTION     0.57     1.62   101.97     0  02:25        0.00
  Node_04759           JUNCTION     0.62     1.80   101.98     0  02:25        0.00
  Node_04760           JUNCTION     0.45     1.59   101.05     0  03:15        0.00
  Node_04764           JUNCTION     0.64     1.59   101.51     0  02:24        0.00
  Node_04765           JUNCTION     0.48     1.51   101.93     0  02:24        0.00
  Node_04766           JUNCTION     0.85     2.26   102.03     0  02:22        0.00
  Node_04767           JUNCTION     0.82     2.26   102.09     0  02:22        0.00
  Node_04768           JUNCTION     0.89     2.35   102.01     0  02:22        0.00
  Node_04854           JUNCTION     0.37     1.40   101.84     0  03:10        0.00
  Node_04855           JUNCTION     0.99     2.10   102.02     0  02:25        0.00
  Node_05283           JUNCTION     1.90     3.63   102.24     0  03:10        0.00
  Node_05284           JUNCTION     1.87     3.58   102.24     0  03:14        0.00
  Node_05285           JUNCTION     1.82     3.47   102.22     0  01:55        0.00
  Node_05286           JUNCTION     1.79     3.42   102.22     0  01:55        0.00
  Node_05287           JUNCTION     1.76     3.42   102.27     0  02:19        0.00
  Node_05288           JUNCTION     1.75     3.41   102.28     0  01:56        0.00
  Node_05289           JUNCTION     1.26     2.70   102.22     0  01:55        0.00
  Node_05290           JUNCTION     1.75     3.40   102.29     0  01:56        0.00
  Node_05291           JUNCTION     1.56     3.19   102.39     0  01:56        0.00
  Node_05292           JUNCTION     1.53     3.17   102.41     0  02:21        0.00
  Node_05293           JUNCTION     1.52     3.15   102.41     0  03:07        0.00
  Node_05294           JUNCTION     1.49     3.11   102.42     0  01:56        0.00
  Node_05295           JUNCTION     1.52     3.15   102.42     0  02:24        0.00
  Node_05296           JUNCTION     1.50     3.11   102.43     0  03:11        0.00
  Node_05297           JUNCTION     1.30     2.79   102.30     0  01:56        0.00
  Node_05298           JUNCTION     1.45     3.05   102.44     0  02:19        0.00
  Node_05299           JUNCTION     1.44     3.03   102.43     0  02:20        0.00
  Node_05300           JUNCTION     1.42     2.98   102.43     0  03:13        0.00
  Node_05301           JUNCTION     1.38     2.93   102.42     0  02:18        0.00
  Node_05302           JUNCTION     1.38     2.93   102.43     0  02:26        0.00
  Node_05303           JUNCTION     1.35     2.88   102.43     0  02:18        0.00
[...]
  Link_05461                  3.64      3.64      3.65      0.79         0.81
  Link_05462                  3.68      3.68      3.69      1.35         1.29
  Link_05463                  3.66      3.68      3.66      2.08         1.72
  Link_05464                  3.62      3.63      3.64      0.01         0.93
  Link_05496                  4.15      4.18      4.15      4.28         4.15
  Link_05662                  1.61      1.61      1.72      0.01         0.01
  Link_05663                  2.45      2.45      2.76      0.01         0.01
  Link_05664                  4.39      4.39      4.41      0.01         0.01
  Link_05665                  4.42      4.50      4.42      4.92         4.42
  Link_05677                  4.40      4.41      4.40      3.21         3.07
  Link_05678                  2.47      2.47      2.48      0.01         0.01
  Link_05720                  4.07      4.08      4.07      2.51         2.13
  Link_05721                  4.08      4.08      4.08      0.71         0.71
  Link_05722                  2.38      2.38      2.43      0.01         0.01
  Link_05723                  2.72      2.72      3.00      0.01         0.01
  Link_05725                  2.06      2.06      2.23      0.01         0.01
  Link_05726                  3.97      3.97      4.01      0.01         0.01
  Link_05727                  3.96      3.96      3.99      0.01         0.04
  Link_05728                  3.14      3.14      3.22      0.01         0.01
  Link_05729                  2.60      2.60      2.61      0.92         0.96
  Link_05730                  3.20      3.20      3.20      0.01         0.01
  Link_05731                  3.56      3.57      3.56      1.04         1.60
  Link_05732                  3.18      3.18      3.20      0.01         0.01
  Link_05742                  2.34      2.34      2.38      0.01         0.01
  Link_05743                  3.81      3.81      3.92      0.01         0.02
  Link_05744                  4.19      4.19      4.28      0.10         0.10
  Link_05752                  2.16      2.16      2.18      1.45         0.01
  Link_05753                  2.53      2.53      2.54      0.01         0.57
  Link_05754                  2.08      2.08      2.22      0.01         0.01
  Link_05791                  2.95      2.95      3.18      0.01         0.01
  Link_05812                  3.77      3.77      3.98      0.01         0.01
  Link_05813                  3.37      3.37      3.42      0.01         0.01
  Link_05814                  3.06      3.06      3.11      0.01         0.01
  Link_05815                  2.95      2.95      2.99      0.01         0.01
  Link_05816                  2.96      2.96      2.97      0.01         0.01
  Link_05817                  2.97      2.97      2.99      0.01         0.01
  Link_05818                  2.96      2.96      2.97      0.01         0.01
  Link_05983                  1.96      1.96      2.04      0.01         0.01
  Link_05984                  1.60      1.60      1.75      0.01         0.01
  Link_07220                  2.14      2.14      2.19      0.02         0.07
  Link_07221                  2.19      2.19      2.20      1.36         1.30
  Link_07222                  2.20      2.20      2.25      0.65         0.66
  Link_07230                  2.25      2.25      2.34      0.48         0.43
  Link_07231                  2.33      2.34      2.34      2.02         1.70
  Link_07233                  2.49      2.64      2.49      2.91         2.49
  Link_07234                  2.54      2.57      2.54      3.21         2.54
  Link_07235                  2.67      2.67      2.70      1.50         1.45
  Link_07270                  1.13      1.13      1.41      0.01         0.01
  Link_07271                  1.40      1.41      1.71      0.01         0.03
  Link_07274                  1.14      1.14      1.15      0.01         0.11
  Link_07277                  1.85      1.86      2.03      0.03         0.06
  Link_07278                  2.05      2.06      2.08      0.04         0.09
  Link_07295                  2.07      2.08      2.12      0.07         0.07
  Link_07296                  2.12      2.12      2.14      0.22         0.16
  Link_07297                  2.14      2.14      2.14      1.34         1.24
  Link_07303                  2.09      2.09      2.10      0.01         0.05
  Link_07306                  1.56      1.56      1.99      0.01         0.01
  Link_07321                  1.59      1.59      1.61      0.01         0.01
  Link_07464                  3.19      3.19      3.22      0.01         0.01
  Link_07578                  2.21      2.21      2.23      0.01         0.01
  Link_07579                  2.46      2.46      2.55      0.01         0.01
  Link_07580                  2.40      2.40      2.46      0.01         0.01
  Link_07687                  3.51      3.51      3.55      0.01         0.01
  Link_07865                  2.99      2.99      2.99      0.01         0.95
  Link_08891                  2.00      2.00      2.29      0.01         0.01
  Link_08912                  1.99      1.99      2.61      0.01         0.01
  Link1_to_ChengXi            3.39      3.62      3.39      0.53         0.24
  Link2_to_ChengXi            3.36      4.72      3.36      4.85         3.36
  Link3_to_ChengXi            1.31      2.60      1.31      2.68         1.31
  Link_to_LaoDongLu           3.20      3.20      3.21      0.01         0.01
  
  
  ***************
  Pumping Summary
  ***************
  
  ---------------------------------------------------------------------------------------------------------
                                                  Min       Avg       Max     Total     Power    % Time Off
                        Percent   Number of      Flow      Flow      Flow    Volume     Usage    Pump Curve
  Pump                 Utilized   Start-Ups       CMS       CMS       CMS  10^6 ltr     Kw-hr    Low   High
  ---------------------------------------------------------------------------------------------------------
  Pump_ChengXi1           80.76         369      0.00      0.17      0.17     2.913     33.67    0.0    0.0
  Pump_ChengXi2           80.76         370      0.00      0.17      0.17     2.913     33.67    0.0    0.0
  Pump_ChengXi3           80.76         370      0.00      0.17      0.17     2.913     33.67    0.0    0.0
  Pump_ChengXi4           40.09         168      0.00      0.17      0.17     1.446     17.89    0.0    0.0
  Pump_LaoDongLu1         51.39           1      0.00      0.03      0.03     0.305      2.05    0.0    0.0
  Pump_LaoDongLu2         51.39           2      0.00      0.03      0.03     0.305      2.05    0.0    0.0
  Pump_LaoDongLu3          0.00           0      0.00      0.00      0.00     0.000      0.00    0.0    0.0
  outfallpump             98.54          62      0.00      0.38      0.45     8.029    166.07    0.0    0.0
  
  
  ***************************
  Link Pollutant Load Summary
  ***************************
  
  ----------------------------------
                                 COD
  Link                            kg
  ----------------------------------
  Link_01146                  42.873
  Link_01147                  57.976
  Link_01148                  72.967
  Link_01149                  84.315
  Link_01150                  98.940
  Link_01151                  72.655
  Link_01152                  63.830
  Link_01274                  16.694
  Link_01275                  31.910
  Link_01276                  68.109
  Link_01292                  23.236
  Link_01294                  96.603
  Link_01295                 111.071
  Link_01296                 125.736
  Link_01297                 160.339
  Link_01298                  16.471
  Link_01299                 191.562
  Link_01300                 206.323
  Link_01301                 221.117
  Link_01302                  16.420
  Link_01312                  20.057
  Link_01313                 282.072
  Link_01314                 291.724
  Link_01315                 306.130
  Link_01316                 320.870
  Link_01317                 335.603
  Link_01318                 350.500
  Link_01319                 365.533
  Link_01320                 421.388
  Link_01323                 251.982
  Link_01324                  18.383
  Link_01325                 284.423
  Link_01326                 299.583
  Link_01327                 196.100
  Link_01328                  21.562
  Link_01329                 218.468
  Link_01330                 223.307
  Link_01331                 229.975
  Link_01332                 195.142
  Link_01333                  18.591
  Link_01334                 228.182
  Link_01335                  19.805
  Link_01336                 262.594
  Link_01337                 152.085
  Link_01338                  18.593
  Link_01339                 127.644
  Link_01340                  13.329
  Link_01341                 126.801
  Link_01342                  18.434
  Link_01343                 149.111
  Link_01344                  27.346
  Link_01345                 180.459
  Link_01346                 192.453
  Link_01347                  45.351
  Link_01348                 178.540
  Link_01349                  27.421
  Link_01350                 190.542
  Link_01351                  17.942
  Link_01352                 212.230
  Link_01556                  18.374
  Link_01557                  33.343
  Link_01558                1999.799
  Link_01559                  39.334
  Link_01560                1984.998
  Link_01561                2055.237
  Link_01562                2071.528
  Link_01563                2086.578
  Link_01564                  15.269
  Link_01565                 130.853
  Link_01566                   9.198
  Link_01567                  18.703
  Link_01568                 155.251
  Link_01569                  37.264
  Link_01570                 179.098
  Link_01571                 135.532
  Link_01572                 210.278
  Link_01573                 152.799
  Link_01574                 136.519
  Link_01575                  19.617
  Link_01576                 101.407
  Link_01577                  66.312
  Link_01578                  50.530
  Link_01579                  18.804
  Link_01580                   7.475
  Link_01581                  12.438
  Link_01582                   9.753
  Link_01731                  29.790
  Link_01732                  51.384
  Link_01733                  69.753
  Link_01734                  20.874
  Link_01735                  21.335
  Link_01751                 134.332
  Link_01752                 146.549
  Link_01753                 174.847
  Link_01754                 187.255
  Link_01755                 200.901
  Link_01756                  16.466
  Link_01757                 241.341
  Link_01758                  17.699
  Link_01759                  17.768
  Link_01760                 275.658
  Link_01761                 285.146
  Link_01762                 295.288
  Link_01763                  19.911
  Link_01764                 319.809
  Link_01765                 336.499
  Link_01766                 341.374
  Link_01767                 349.227
  Link_01768                 352.141
  Link_01769                 356.190
  Link_01770                 359.821
  Link_01771                 363.851
  Link_01772                  37.568
  Link_01773                 386.522
  Link_01774                  39.387
  Link_01775                 210.578
  Link_01776                 194.191
  Link_01777                 180.693
  Link_01778                 214.148
  Link_01779                 141.339
  Link_01780                 258.227
  Link_01781                  70.335
  Link_01782                 429.613
  Link_01783                  17.993
  Link_01784                 446.532
  Link_01785                 456.115
  Link_01786                  68.088
  Link_01787                  39.565
  Link_01788                 549.301
  Link_01789                 560.904
  Link_01790                  23.538
  Link_01791                  23.860
  Link_01792                  22.355
  Link_01793                 629.026
  Link_01794                 645.305
  Link_01795                 661.416
  Link_01796                 677.322
  Link_01797                 691.432
  Link_01798                1189.906
  Link_01799                1177.324
  Link_01800                1202.754
  Link_01801                 749.952
  Link_01802                1109.254
  Link_01803                1164.259
  Link_01804                 972.742
  Link_01805                 958.505
  Link_01806                 944.593
  Link_01807                 929.810
  Link_01808                  21.869
  Link_01809                 895.405
  Link_01810                 866.756
  Link_01811                  14.724
  Link_01812                  59.566
  Link_01813                  50.323
  Link_01814                 815.830
  Link_01815                 802.379
  Link_01816                 773.299
  Link_01817                  16.432
  Link_01818                 727.830
  Link_01819                 698.449
  Link_01820                  18.085
  Link_01821                  32.518
  Link_01822                   7.511
  Link_01823                 272.444
  Link_01824                 268.922
  Link_01825                  87.456
  Link_01826                  89.743
  Link_01827                   4.295
  Link_01828                  94.969
  Link_01829                   7.456
  Link_01830                 102.268
  Link_01831                   3.907
  Link_01832                 107.380
  Link_01833                 109.388
  Link_01834                 114.039
  Link_01835                   4.144
  Link_01836                  62.297
  Link_01837                  20.659
  Link_01838                  45.074
  Link_01839                  57.672
  Link_01840                  53.366
  Link_01841                  48.629
  Link_01842                  36.797
  Link_01843                  26.007
  Link_01844                  21.183
  Link_02074                  18.187
  Link_02075                 162.246
  Link_02076                 170.602
  Link_02077                  33.260
  Link_02078                 209.478
  Link_02079                  20.140
  Link_02080                 242.848
  Link_02081                 256.488
  Link_02082                 270.095
  Link_02083                  20.090
  Link_02084                  18.534
  Link_02085                 493.365
  Link_02086                 500.976
  Link_02087                 507.319
  Link_02088                 513.593
  Link_02089                 519.688
  Link_02090                 566.446
  Link_02091                 552.777
  Link_02092                 539.030
  Link_02093                  18.101
  Link_02094                 494.784
  Link_02095                 481.148
  Link_02096                 489.640
  Link_02097                  25.198
  Link_02098                  78.717
  Link_02099                 475.234
  Link_02100                 460.120
  Link_02101                  55.185
  Link_02102                 456.653
  Link_02103                 417.290
  Link_02104                  37.416
  Link_02105                 296.119
  Link_02106                  22.180
  Link_02107                  14.834
  Link_02108                 262.897
  Link_02109                 245.047
  Link_02110                 348.542
  Link_02111                 261.112
  Link_02112                  23.565
  Link_02113                 193.517
  Link_02114                  62.587
  Link_02115                  58.522
  Link_02116                  54.613
  Link_02117                  49.893
  Link_02118                  45.509
  Link_02123                   8.074
  Link_02124                  12.467
  Link_02125                  17.383
  Link_02126                  22.071
  Link_02127                  41.153
  Link_02128                  35.755
  Link_02129                  61.990
  Link_02130                  27.759
  Link_02131                  23.643
  Link_02132                  19.007
  Link_02133                  13.825
  Link_02134                 197.392
  Link_02135                 201.368
  Link_02136                 213.054
  Link_02137                   7.958
  Link_02138                 244.944
  Link_02139                 241.077
  Link_02140                 237.160
  Link_02141                 233.124
  Link_02142                 229.136
  Link_02143                 217.044
  Link_02383                  14.690
  Link_02384                  15.478
  Link_02385                  25.285
  Link_02386                  32.456
  Link_02387                  72.538
  Link_02388                  87.288
  Link_02389                  25.439
  Link_02390                 102.268
  Link_02391                 142.625
  Link_02392                  48.302
  Link_02393                 204.666
  Link_05459                 121.561
  Link_05460                 266.289
  Link_05461                 328.756
  Link_05462                 415.064
  Link_05463                 612.873
  Link_05464                  50.371
  Link_05496                1967.313
  Link_05662                  82.428
  Link_05663                  17.376
  Link_05664                  59.065
  Link_05665                 436.411
  Link_05677                 261.199
  Link_05678                  25.218
  Link_05720                1094.970
  Link_05721                 852.003
  Link_05722                  23.492
  Link_05723                 133.675
  Link_05725                  26.616
  Link_05726                 489.924
  Link_05727                  16.362
  Link_05728                 508.524
  Link_05729                 472.223
  Link_05730                 345.439
  Link_05731                 265.327
  Link_05732                 257.546
  Link_05742                  32.605
  Link_05743                 159.343
  Link_05744                 283.926
  Link_05752                 288.090
  Link_05753                   6.538
  Link_05754                  31.433
  Link_05791                   8.604
  Link_05812                 265.621
  Link_05813                 168.494
  Link_05814                 128.566
  Link_05815                 167.227
  Link_05816                  30.305
  Link_05817                  41.398
  Link_05818                  40.408
  Link_05983                  41.804
  Link_05984                  27.006
  Link_06039                   4.400
  Link_07220                 196.552
  Link_07221                 211.484
  Link_07222                 179.296
  Link_07230                 194.224
  Link_07231                 209.051
  Link_07233                 452.479
  Link_07234                 467.383
  Link_07235                 228.860
  Link_07270                  40.641
  Link_07271                  68.138
  Link_07274                  26.678
  Link_07277                  94.316
  Link_07278                 118.538
  Link_07295                 125.186
  Link_07296                 143.535
  Link_07297                 181.834
  Link_07303                  18.427
  Link_07306                  84.640
  Link_07321                  13.261
  Link_07464                  29.087
  Link_07578                  32.652
  Link_07579                 400.712
  Link_07580                 350.851
  Link_07687                  27.324
  Link_07865                  12.234
  Link_08891                  20.021
  Link_08912                  41.197
  Link1_to_ChengXi          2102.153
  Link2_to_ChengXi           452.385
  Link3_to_ChengXi           482.219
  Link_to_LaoDongLu          350.525
  Pump_ChengXi1              876.181
  Pump_ChengXi2              876.181
  Pump_ChengXi3              876.181
  Pump_ChengXi4              434.914
  Pump_LaoDongLu1            114.266
  Pump_LaoDongLu2            114.266
  Pump_LaoDongLu3              0.000
  outfallpump               2406.654
  

  Analysis begun on:  Sun Sep  5 12:07:29 2021
  Analysis ended on:  Sun Sep  5 12:07:31 2021
  Total elapsed time: 00:00:02