
  EPA STORM WATER MANAGEMENT MODEL - VERSION 5.1 (Build 5.3.0.dev0)
  --------------------------------------------------------------

  WARNING 04: minimum elevation drop used for Conduit Link_01776
  WARNING 04: minimum elevation drop used for Conduit Link_01779
  WARNING 04: minimum elevation drop used for Conduit Link_07234
  WARNING 02: maximum depth increased for Node Node_06087
  
  *********************************************************
  NOTE: The summary statistics displayed in this report are
  based on results found at every computational time step,  
  not just on results from each reporting time step.
  *********************************************************
  
  ****************
  Analysis Options
  ****************
  Flow Units ............... CMS
  Process Models:
    Rainfall/Runoff ........ YES
    RDII ................... NO
    Snowmelt ............... NO
    Groundwater ............ NO
    Flow Routing ........... YES
    Ponding Allowed ........ YES
    Water Quality .......... YES
  Infiltration Method ...... HORTON
  Flow Routing Method ...... DYNWAVE
  Surcharge Method ......... EXTRAN
  Starting Date ............ 01/02/2011 00:00:00
  Ending Date .............. 01/02/2011 06:00:00
  Antecedent Dry Days ...... 0.0
  Report Time Step ......... 00:15:00
  Wet Time Step ............ 00:05:00
  Dry Time Step ............ 01:00:00
  Routing Time Step ........ 60.00 sec
  Variable Time Step ....... YES
  Maximum Trials ........... 8
  Number of Threads ........ 4
  Head Tolerance ........... 0.001500 m
  
  
  **************************        Volume         Depth
  Runoff Quantity Continuity     hectare-m            mm
  **************************     ---------       -------
  Total Precipitation ......         1.144        40.000
  Evaporation Loss .........         0.000         0.000
  Infiltration Loss ........         0.051         1.781
  Surface Runoff ...........         1.102        38.540
  Final Storage ............         0.000         0.009
  Continuity Error (%) .....        -0.826
  
  
  **************************           COD
  Runoff Quality Continuity             kg
  **************************    ----------
  Initial Buildup ..........         0.000
  Surface Buildup ..........         0.000
  Wet Deposition ...........      3008.738
  Sweeping Removal .........         0.000
  Infiltration Loss ........       133.992
  BMP Removal ..............         0.000
  Surface Runoff ...........      2898.894
  Remaining Buildup ........         0.706
  Continuity Error (%) .....        -0.826
  
  
  **************************        Volume        Volume
  Flow Routing Continuity        hectare-m      10^6 ltr
  **************************     ---------     ---------
  Dry Weather Inflow .......         0.153         1.529
  Wet Weather Inflow .......         1.102        11.022
  Groundwater Inflow .......         0.000         0.000
  RDII Inflow ..............         0.000         0.000
  External Inflow ..........         0.000         0.000
  External Outflow .........         0.839         8.393
  Flooding Loss ............         0.437         4.370
  Evaporation Loss .........         0.000         0.000
  Exfiltration Loss ........         0.000         0.000
  Initial Stored Volume ....         0.077         0.773
  Final Stored Volume ......         0.300         2.996
  Continuity Error (%) .....       -18.276
  
  
  **************************           COD
  Quality Routing Continuity            kg
  **************************    ----------
  Dry Weather Inflow .......       845.606
  Wet Weather Inflow .......      2898.884
  Groundwater Inflow .......         0.000
  RDII Inflow ..............         0.000
  External Inflow ..........         0.000
  External Outflow .........      2543.610
  Flooding Loss ............      1142.629
  Exfiltration Loss ........         0.000
  Mass Reacted .............         0.000
  Initial Stored Mass ......       427.257
  Final Stored Mass ........       663.379
  Continuity Error (%) .....        -4.264
  
  
  *************************
  Highest Continuity Errors
  *************************
  Node Node_07272 (-69.16%)
  Node Node_04713 (-49.25%)
  Node Node_04714 (-27.60%)
  Node Node_04455 (-24.25%)
  Node Node_04715 (-24.00%)
  
  
  ***************************
  Time-Step Critical Elements
  ***************************
  Link Link_01778 (65.05%)
  Link Link_01292 (15.93%)
  Link Link_07234 (2.13%)
  Link Link_06039 (1.64%)
  Link Link_07277 (1.53%)
  
  
  ********************************
  Highest Flow Instability Indexes
  ********************************
  Link Link_01558 (77)
  Link Link_01778 (73)
  Link Link_01336 (72)
  Link Link_01335 (71)
  Link Link_01325 (70)
  
  
  *************************
  Routing Time Step Summary
  *************************
  Minimum Time Step           :     5.00 sec
  Average Time Step           :     5.00 sec
  Maximum Time Step           :     5.00 sec
  Percent in Steady State     :     0.00
  Average Iterations per Step :     6.87
  Percent Not Converging      :    64.98
  
  
  ***************************
  Subcatchment Runoff Summary
  ***************************
  
  ------------------------------------------------------------------------------------------------------------------------------
                            Total      Total      Total      Total     Imperv       Perv      Total       Total     Peak  Runoff
                           Precip      Runon       Evap      Infil     Runoff     Runoff     Runoff      Runoff   Runoff   Coeff
  Subcatchment                 mm         mm         mm         mm         mm         mm         mm    10^6 ltr      CMS
  ------------------------------------------------------------------------------------------------------------------------------
  2707                      40.00       0.00       0.00       1.79      10.00      28.54      38.54        0.04     0.01   0.964
  2708                      40.00       0.00       0.00       1.79      10.00      28.54      38.54        0.04     0.01   0.964
  2709                      40.00       0.00       0.00       1.79      10.00      28.54      38.54        0.04     0.01   0.964
  2710                      40.00       0.00       0.00       1.79      10.00      28.54      38.54        0.04     0.01   0.964
  2712                      40.00       0.00       0.00       1.79      10.00      28.54      38.54        0.04     0.01   0.964
  2713                      40.00       0.00       0.00       1.79      10.00      28.54      38.54        0.04     0.01   0.964
  2714                      40.00       0.00       0.00       1.79      10.00      28.54      38.54        0.04     0.01   0.964
  2715                      40.00       0.00       0.00       1.79      10.00      28.54      38.54        0.04     0.01   0.964
  2716                      40.00       0.00       0.00       1.79      10.00      28.54      38.54        0.04     0.01   0.964
  2717                      40.00       0.00       0.00       1.79      10.00      28.54      38.54        0.04     0.01   0.964
  2718                      40.00       0.00       0.00       1.79      10.00      28.54      38.54        0.04     0.01   0.964
  2719                      40.00       0.00       0.00       1.79      10.00      28.54      38.54        0.04     0.01   0.964
  2721                      40.00       0.00       0.00       1.79      10.00      28.54      38.54        0.04     0.01   0.964
  2722                      40.00       0.00       0.00       1.79      10.00      28.54      38.54        0.04     0.01   0.964
  2723                      40.00       0.00       0.00       1.79      10.00      28.54      38.54        0.04     0.01   0.964
  2724                      40.00       0.00       0.00       1.79      10.00      28.54      38.54        0.04     0.01   0.964
  2725                      40.00       0.00       0.00       1.79      10.00      28.54      38.54        0.04     0.01   0.964
  2726                      40.00       0.00       0.00       1.79      10.00      28.54      38.54        0.04     0.01   0.964
  2727                      40.00       0.00       0.00       1.79      10.00      28.54      38.54        0.04     0.01   0.964
  2728                      40.00       0.00       0.00       1.79      10.00      28.54      38.54        0.04     0.01   0.964
  2729                      40.00       0.00       0.00       1.79      10.00      28.54      38.54        0.04     0.01   0.964
  2730                      40.00       0.00       0.00       1.79      10.00      28.54      38.54        0.04     0.01   0.964
  2731                      40.00       0.00       0.00       1.79      10.00      28.54      38.54        0.04     0.01   0.964
  2732                      40.00       0.00       0.00       1.79      10.00      28.54      38.54        0.04     0.01   0.964
  2733                      40.00       0.00       0.00       1.79      10.00      28.54      38.54        0.04     0.01   0.964
  2734                      40.00       0.00       0.00       1.79      10.00      28.54      38.54        0.04     0.01   0.964
  2735                      40.00       0.00       0.00       1.79      10.00      28.54      38.54        0.04     0.01   0.964
  2736                      40.00       0.00       0.00       1.79      10.00      28.54      38.54        0.04     0.01   0.964
  2737                      40.00       0.00       0.00       1.79      10.00      28.54      38.54        0.04     0.01   0.964
  2738                      40.00       0.00       0.00       1.79      10.00      28.54      38.54        0.04     0.01   0.964
  2739                      40.00       0.00       0.00       1.79      10.00      28.54      38.54        0.04     0.01   0.964
  2740                      40.00       0.00       0.00       1.79      10.00      28.54      38.54        0.04     0.01   0.964
  2741                      40.00       0.00       0.00       1.79      10.00      28.54      38.54        0.04     0.01   0.964
  2742                      40.00       0.00       0.00       1.79      10.00      28.54      38.54        0.04     0.01   0.964
  2743                      40.00       0.00       0.00       1.79      10.00      28.54      38.54        0.04     0.01   0.964
  2744                      40.00       0.00       0.00       1.79      10.00      28.54      38.54        0.04     0.01   0.964
  2745                      40.00       0.00       0.00       1.79      10.00      28.54      38.54        0.04     0.01   0.964
  2746                      40.00       0.00       0.00       1.79      10.00      28.54      38.54        0.04     0.01   0.964
  2747                      40.00       0.00       0.00       1.79      10.00      28.54      38.54        0.04     0.01   0.964
  2748                      40.00       0.00       0.00       1.79      10.00      28.54      38.54        0.04     0.01   0.964
  2749                      40.00       0.00       0.00       1.79      10.00      28.54      38.54        0.04     0.01   0.964
  2750                      40.00       0.00       0.00       1.79      10.00      28.54      38.54        0.04     0.01   0.964
  2751                      40.00       0.00       0.00       1.79      10.00      28.54      38.54        0.04     0.01   0.964
  2752                      40.00       0.00       0.00       1.79      10.00      28.54      38.54        0.04     0.01   0.964
  2753                      40.00       0.00       0.00       1.79      10.00      28.54      38.54        0.04     0.01   0.964
  2754                      40.00       0.00       0.00       1.79      10.00      28.54      38.54        0.04     0.01   0.964
  2755                      40.00       0.00       0.00       1.79      10.00      28.54      38.54        0.04     0.01   0.964
  2756                      40.00       0.00       0.00       1.79      10.00      28.54      38.54        0.04     0.01   0.964
  2964                      40.00       0.00       0.00       1.79      10.00      28.54      38.54        0.04     0.01   0.964
  2969                      40.00       0.00       0.00       1.79      10.00      28.54      38.54        0.04     0.01   0.964
  2970                      40.00       0.00       0.00       1.79      10.00      28.54      38.54        0.04     0.01   0.964
  2974                      40.00       0.00       0.00       1.79      10.00      28.54      38.54        0.04     0.01   0.964
  2975                      40.00       0.00       0.00       1.79      10.00      28.54      38.54        0.04     0.01   0.964
  2976                      40.00       0.00       0.00       1.79      10.00      28.54      38.54        0.04     0.01   0.964
  2977                      40.00       0.00       0.00       1.79      10.00      28.54      38.54        0.04     0.01   0.964
  2978                      40.00       0.00       0.00       1.79      10.00      28.54      38.54        0.04     0.01   0.964
  2979                      40.00       0.00       0.00       1.79      10.00      28.54      38.54        0.04     0.01   0.964
  2980                      40.00       0.00       0.00       1.79      10.00      28.54      38.54        0.04     0.01   0.964
  2981                      40.00       0.00       0.00       1.79      10.00      28.54      38.54        0.04     0.01   0.964
  2982                      40.00       0.00       0.00       1.79      10.00      28.54      38.54        0.04     0.01   0.964
  2984                      40.00       0.00       0.00       1.79      10.00      28.54      38.54        0.04     0.01   0.964
  2985                      40.00       0.00       0.00       1.79      10.00      28.54      38.54        0.04     0.01   0.964
  3925                      40.00       0.00       0.00       1.79      10.00      28.54      38.54        0.04     0.01   0.964
  3926                      40.00       0.00       0.00       1.79      10.00      28.54      38.54        0.04     0.01   0.964
  3927                      40.00       0.00       0.00       1.79      10.00      28.54      38.54        0.04     0.01   0.964
  3928                      40.00       0.00       0.00       1.79      10.00      28.54      38.54        0.04     0.01   0.964
  3929                      40.00       0.00       0.00       1.79      10.00      28.54      38.54        0.04     0.01   0.964
  3930                      40.00       0.00       0.00       1.79      10.00      28.54      38.54        0.04     0.01   0.964
  3931                      40.00       0.00       0.00       1.79      10.00      28.54      38.54        0.04     0.01   0.964
  3932                      40.00       0.00       0.00       1.79      10.00      28.54      38.54        0.04     0.01   0.964
  3933                      40.00       0.00       0.00       1.79      10.00      28.54      38.54        0.04     0.01   0.964
  3934                      40.00       0.00       0.00       1.79      10.00      28.54      38.54        0.04     0.01   0.964
  3935                      40.00       0.00       0.00       1.79      10.00      28.54      38.54        0.04     0.01   0.964
  3936                      40.00       0.00       0.00       1.79      10.00      28.54      38.54        0.04     0.01   0.964
  3937                      40.00       0.00       0.00       1.79      10.00      28.54      38.54        0.04     0.01   0.964
  3938                      40.00       0.00       0.00       1.79      10.00      28.54      38.54        0.04     0.01   0.964
  3939                      40.00       0.00       0.00       1.79      10.00      28.54      38.54        0.04     0.01   0.964
  3940                      40.00       0.00       0.00       1.79      10.00      28.54      38.54        0.04     0.01   0.964
  3941                      40.00       0.00       0.00       1.79      10.00      28.54      38.54        0.04     0.01   0.964
  3942                      40.00       0.00       0.00       1.79      10.00      28.54      38.54        0.04     0.01   0.964
  3943                      40.00       0.00       0.00       1.79      10.00      28.54      38.54        0.04     0.01   0.964
  3944                      40.00       0.00       0.00       1.79      10.00      28.54      38.54        0.04     0.01   0.964
  3945                      40.00       0.00       0.00       1.79      10.00      28.54      38.54        0.04     0.01   0.964
  3946                      40.00       0.00       0.00       1.79      10.00      28.54      38.54        0.04     0.01   0.964
  3947                      40.00       0.00       0.00       1.79      10.00      28.54      38.54        0.04     0.01   0.964
  3948                      40.00       0.00       0.00       1.79      10.00      28.54      38.54        0.04     0.01   0.964
  3949                      40.00       0.00       0.00       1.79      10.00      28.54      38.54        0.04     0.01   0.964
  3950                      40.00       0.00       0.00       1.79      10.00      28.54      38.54        0.04     0.01   0.964
  3951                      40.00       0.00       0.00       1.79      10.00      28.54      38.54        0.04     0.01   0.964
  3952                      40.00       0.00       0.00       1.79      10.00      28.54      38.54        0.04     0.01   0.964
  3953                      40.00       0.00       0.00       1.79      10.00      28.54      38.54        0.04     0.01   0.964
  3954                      40.00       0.00       0.00       1.79      10.00      28.54      38.54        0.04     0.01   0.964
  3955                      40.00       0.00       0.00       1.79      10.00      28.54      38.54        0.04     0.01   0.964
  3956                      40.00       0.00       0.00       1.79      10.00      28.54      38.54        0.04     0.01   0.964
  4032                      40.00       0.00       0.00       1.79      10.00      28.54      38.54        0.04     0.01   0.964
  4033                      40.00       0.00       0.00       1.79      10.00      28.54      38.54        0.04     0.01   0.964
  4041                      40.00       0.00       0.00       1.79      10.00      28.54      38.54        0.04     0.01   0.964
  4051                      40.00       0.00       0.00       1.79      10.00      28.54      38.54        0.04     0.01   0.964
  4055                      40.00       0.00       0.00       1.79      10.00      28.54      38.54        0.04     0.01   0.964
  4056                      40.00       0.00       0.00       1.79      10.00      28.54      38.54        0.04     0.01   0.964
  4058                      40.00       0.00       0.00       1.79      10.00      28.54      38.54        0.04     0.01   0.964
  4385                      40.00       0.00       0.00       1.79      10.00      28.54      38.54        0.04     0.01   0.964
  4386                      40.00       0.00       0.00       1.79      10.00      28.54      38.54        0.04     0.01   0.964
  4387                      40.00       0.00       0.00       1.79      10.00      28.54      38.54        0.04     0.01   0.964
  4388                      40.00       0.00       0.00       1.79      10.00      28.54      38.54        0.04     0.01   0.964
  4389                      40.00       0.00       0.00       1.79      10.00      28.54      38.54        0.04     0.01   0.964
  4390                      40.00       0.00       0.00       1.79      10.00      28.54      38.54        0.04     0.01   0.964
  4391                      40.00       0.00       0.00       1.79      10.00      28.54      38.54        0.04     0.01   0.964
  4392                      40.00       0.00       0.00       1.79      10.00      28.54      38.54        0.04     0.01   0.964
  4393                      40.00       0.00       0.00       1.79      10.00      28.54      38.54        0.04     0.01   0.964
  4394                      40.00       0.00       0.00       1.79      10.00      28.54      38.54        0.04     0.01   0.964
  4395                      40.00       0.00       0.00       1.79      10.00      28.54      38.54        0.04     0.01   0.964
  4396                      40.00       0.00       0.00       1.79      10.00      28.54      38.54        0.04     0.01   0.964
  4397                      40.00       0.00       0.00       1.79      10.00      28.54      38.54        0.04     0.01   0.964
  4398                      40.00       0.00       0.00       1.79      10.00      28.54      38.54        0.04     0.01   0.964
  4429                      40.00       0.00       0.00       1.79      10.00      28.54      38.54        0.04     0.01   0.964
  4430                      40.00       0.00       0.00       1.79      10.00      28.54      38.54        0.04     0.01   0.964
  4431                      40.00       0.00       0.00       1.79      10.00      28.54      38.54        0.04     0.01   0.964
  4432                      40.00       0.00       0.00       1.79      10.00      28.54      38.54        0.04     0.01   0.964
  4433                      40.00       0.00       0.00       1.79      10.00      28.54      38.54        0.04     0.01   0.964
  4434                      40.00       0.00       0.00       1.79      10.00      28.54      38.54        0.04     0.01   0.964
  4435                      40.00       0.00       0.00       1.79      10.00      28.54      38.54        0.04     0.01   0.964
  4436                      40.00       0.00       0.00       1.79      10.00      28.54      38.54        0.04     0.01   0.964
  4437                      40.00       0.00       0.00       1.79      10.00      28.54      38.54        0.04     0.01   0.964
  4438                      40.00       0.00       0.00       1.79      10.00      28.54      38.54        0.04     0.01   0.964
  4439                      40.00       0.00       0.00       1.79      10.00      28.54      38.54        0.04     0.01   0.964
  4440                      40.00       0.00       0.00       1.79      10.00      28.54      38.54        0.04     0.01   0.964
  4441                      40.00       0.00       0.00       1.79      10.00      28.54      38.54        0.04     0.01   0.964
  4442                      40.00       0.00       0.00       1.79      10.00      28.54      38.54        0.04     0.01   0.964
  4443                      40.00       0.00       0.00       1.79      10.00      28.54      38.54        0.04     0.01   0.964
  4444                      40.00       0.00       0.00       1.79      10.00      28.54      38.54        0.04     0.01   0.964
  4445                      40.00       0.00       0.00       1.79      10.00      28.54      38.54        0.04     0.01   0.964
  4446                      40.00       0.00       0.00       1.79      10.00      28.54      38.54        0.04     0.01   0.964
  4447                      40.00       0.00       0.00       1.79      10.00      28.54      38.54        0.04     0.01   0.964
  4448                      40.00       0.00       0.00       1.79      10.00      28.54      38.54        0.04     0.01   0.964
  4449                      40.00       0.00       0.00       1.79      10.00      28.54      38.54        0.04     0.01   0.964
  4450                      40.00       0.00       0.00       1.79      10.00      28.54      38.54        0.04     0.01   0.964
  4451                      40.00       0.00       0.00       1.79      10.00      28.54      38.54        0.04     0.01   0.964
  4452                      40.00       0.00       0.00       1.79      10.00      28.54      38.54        0.04     0.01   0.964
  4453                      40.00       0.00       0.00       1.79      10.00      28.54      38.54        0.04     0.01   0.964
  4454                      40.00       0.00       0.00       1.79      10.00      28.54      38.54        0.04     0.01   0.964
  4462                      40.00       0.00       0.00       1.79      10.00      28.54      38.54        0.04     0.01   0.964
  4463                      40.00       0.00       0.00       1.79      10.00      28.54      38.54        0.04     0.01   0.964
  4563                      40.00       0.00       0.00       1.79      10.00      28.54      38.54        0.04     0.01   0.964
  4564                      40.00       0.00       0.00       1.79      10.00      28.54      38.54        0.04     0.01   0.964
  4565                      40.00       0.00       0.00       1.79      10.00      28.54      38.54        0.04     0.01   0.964
  4566                      40.00       0.00       0.00       1.79      10.00      28.54      38.54        0.04     0.01   0.964
  4567                      40.00       0.00       0.00       1.79      10.00      28.54      38.54        0.04     0.01   0.964
  4568                      40.00       0.00       0.00       1.79      10.00      28.54      38.54        0.04     0.01   0.964
  4569                      40.00       0.00       0.00       1.79      10.00      28.54      38.54        0.04     0.01   0.964
  4570                      40.00       0.00       0.00       1.79      10.00      28.54      38.54        0.04     0.01   0.964
  4571                      40.00       0.00       0.00       1.79      10.00      28.54      38.54        0.04     0.01   0.964
  4572                      40.00       0.00       0.00       1.79      10.00      28.54      38.54        0.04     0.01   0.964
  4573                      40.00       0.00       0.00       1.79      10.00      28.54      38.54        0.04     0.01   0.964
  4574                      40.00       0.00       0.00       1.79      10.00      28.54      38.54        0.04     0.01   0.964
  4575                      40.00       0.00       0.00       1.79      10.00      28.54      38.54        0.04     0.01   0.964
  4576                      40.00       0.00       0.00       1.79      10.00      28.54      38.54        0.04     0.01   0.964
  4577                      40.00       0.00       0.00       1.79      10.00      28.54      38.54        0.04     0.01   0.964
  4578                      40.00       0.00       0.00       1.79      10.00      28.54      38.54        0.04     0.01   0.964
  4579                      40.00       0.00       0.00       1.79      10.00      28.54      38.54        0.04     0.01   0.964
  4580                      40.00       0.00       0.00       1.79      10.00      28.54      38.54        0.04     0.01   0.964
  4581                      40.00       0.00       0.00       1.79      10.00      28.54      38.54        0.04     0.01   0.964
  4624                      40.00       0.00       0.00       1.79      10.00      28.54      38.54        0.04     0.01   0.964
  4625                      40.00       0.00       0.00       1.79      10.00      28.54      38.54        0.04     0.01   0.964
  4644                      40.00       0.00       0.00       1.79      10.00      28.54      38.54        0.04     0.01   0.964
  4645                      40.00       0.00       0.00       1.79      10.00      28.54      38.54        0.04     0.01   0.964
  4646                      40.00       0.00       0.00       1.79      10.00      28.54      38.54        0.04     0.01   0.964
  4679                      40.00       0.00       0.00       1.79      10.00      28.54      38.54        0.04     0.01   0.964
  4680                      40.00       0.00       0.00       1.79      10.00      28.54      38.54        0.04     0.01   0.964
  4681                      40.00       0.00       0.00       1.79      10.00      28.54      38.54        0.04     0.01   0.964
  4682                      40.00       0.00       0.00       1.79      10.00      28.54      38.54        0.04     0.01   0.964
  4683                      40.00       0.00       0.00       1.79      10.00      28.54      38.54        0.04     0.01   0.964
  4711                      40.00       0.00       0.00       1.79      10.00      28.54      38.54        0.04     0.01   0.964
  4712                      40.00       0.00       0.00       1.79      10.00      28.54      38.54        0.04     0.01   0.964
  4713                      40.00       0.00       0.00       1.79      10.00      28.54      38.54        0.04     0.01   0.964
  4714                      40.00       0.00       0.00       1.79      10.00      28.54      38.54        0.04     0.01   0.964
  4715                      40.00       0.00       0.00       1.79      10.00      28.54      38.54        0.04     0.01   0.964
  4716                      40.00       0.00       0.00       1.79      10.00      28.54      38.54        0.04     0.01   0.964
  4717                      40.00       0.00       0.00       1.79      10.00      28.54      38.54        0.04     0.01   0.964
  4718                      40.00       0.00       0.00       1.79      10.00      28.54      38.54        0.04     0.01   0.964
  4722                      40.00       0.00       0.00       1.79      10.00      28.54      38.54        0.04     0.01   0.964
  4760                      40.00       0.00       0.00       1.79      10.00      28.54      38.54        0.04     0.01   0.964
  4761                      40.00       0.00       0.00       1.79      10.00      28.54      38.54        0.04     0.01   0.964
  4765                      40.00       0.00       0.00       1.79      10.00      28.54      38.54        0.04     0.01   0.964
  4766                      40.00       0.00       0.00       1.79      10.00      28.54      38.54        0.04     0.01   0.964
  4767                      40.00       0.00       0.00       1.79      10.00      28.54      38.54        0.04     0.01   0.964
  4768                      40.00       0.00       0.00       1.79      10.00      28.54      38.54        0.04     0.01   0.964
  4769                      40.00       0.00       0.00       1.79      10.00      28.54      38.54        0.04     0.01   0.964
  4855                      40.00       0.00       0.00       1.79      10.00      28.54      38.54        0.04     0.01   0.964
  4856                      40.00       0.00       0.00       1.79      10.00      28.54      38.54        0.04     0.01   0.964
  5284                      40.00       0.00       0.00       1.79      10.00      28.54      38.54        0.04     0.01   0.964
  5285                      40.00       0.00       0.00       1.79      10.00      28.54      38.54        0.04     0.01   0.964
  5286                      40.00       0.00       0.00       1.79      10.00      28.54      38.54        0.04     0.01   0.964
  5287                      40.00       0.00       0.00       1.79      10.00      28.54      38.54        0.04     0.01   0.964
  5288                      40.00       0.00       0.00       1.79      10.00      28.54      38.54        0.04     0.01   0.964
  5289                      40.00       0.00       0.00       1.79      10.00      28.54      38.54        0.04     0.01   0.964
  5290                      40.00       0.00       0.00       1.79      10.00      28.54      38.54        0.04     0.01   0.964
  5291                      40.00       0.00       0.00       1.79      10.00      28.54      38.54        0.04     0.01   0.964
  5292                      40.00       0.00       0.00       1.79      10.00      28.54      38.54        0.04     0.01   0.964
  5293                      40.00       0.00       0.00       1.79      10.00      28.54      38.54        0.04     0.01   0.964
  5294                      40.00       0.00       0.00       1.79      10.00      28.54      38.54        0.04     0.01   0.964
  5295                      40.00       0.00       0.00       1.79      10.00      28.54      38.54        0.04     0.01   0.964
  5296                      40.00       0.00       0.00       1.79      10.00      28.54      38.54        0.04     0.01   0.964
  5297                      40.00       0.00       0.00       1.79      10.00      28.54      38.54        0.04     0.01   0.964
  5298                      40.00       0.00       0.00       1.79      10.00      28.54      38.54        0.04     0.01   0.964
  5299                      40.00       0.00       0.00       1.79      10.00      28.54      38.54        0.04     0.01   0.964
  5300                      40.00       0.00       0.00       1.79      10.00      28.54      38.54        0.04     0.01   0.964
  5301                      40.00       0.00       0.00       1.79      10.00      28.54      38.54        0.04     0.01   0.964
  5302                      40.00       0.00       0.00       1.79      10.00      28.54      38.54        0.04     0.01   0.964
  5303                      40.00       0.00       0.00       1.79      10.00      28.54      38.54        0.04     0.01   0.964
  5304                      40.00       0.00       0.00       1.79      10.00      28.54      38.54        0.04     0.01   0.964
  5305                      40.00       0.00       0.00       1.79      10.00      28.54      38.54        0.04     0.01   0.964
  5306                      40.00       0.00       0.00       1.79      10.00      28.54      38.54        0.04     0.01   0.964
  5307                      40.00       0.00       0.00       1.79      10.00      28.54      38.54        0.04     0.01   0.964
  5308                      40.00       0.00       0.00       1.79      10.00      28.54      38.54        0.04     0.01   0.964
  5309                      40.00       0.00       0.00       1.79      10.00      28.54      38.54        0.04     0.01   0.964
  5310                      40.00       0.00       0.00       1.79      10.00      28.54      38.54        0.04     0.01   0.964
  5311                      40.00       0.00       0.00       1.79      10.00      28.54      38.54        0.04     0.01   0.964
  5312                      40.00       0.00       0.00       1.79      10.00      28.54      38.54        0.04     0.01   0.964
  5313                      40.00       0.00       0.00       1.79      10.00      28.54      38.54        0.04     0.01   0.964
  5314                      40.00       0.00       0.00       1.79      10.00      28.54      38.54        0.04     0.01   0.964
  5315                      40.00       0.00       0.00       1.79      10.00      28.54      38.54        0.04     0.01   0.964
  5316                      40.00       0.00       0.00       1.79      10.00      28.54      38.54        0.04     0.01   0.964
  5317                      40.00       0.00       0.00       1.79      10.00      28.54      38.54        0.04     0.01   0.964
  5318                      40.00       0.00       0.00       1.79      10.00      28.54      38.54        0.04     0.01   0.964
  5319                      40.00       0.00       0.00       1.79      10.00      28.54      38.54        0.04     0.01   0.964
  5320                      40.00       0.00       0.00       1.79      10.00      28.54      38.54        0.04     0.01   0.964
  5321                      40.00       0.00       0.00       1.79      10.00      28.54      38.54        0.04     0.01   0.964
  5322                      40.00       0.00       0.00       1.79      10.00      28.54      38.54        0.04     0.01   0.964
  5323                      40.00       0.00       0.00       1.79      10.00      28.54      38.54        0.04     0.01   0.964
  5324                      40.00       0.00       0.00       1.79      10.00      28.54      38.54        0.04     0.01   0.964
  5325                      40.00       0.00       0.00       1.79      10.00      28.54      38.54        0.04     0.01   0.964
  5326                      40.00       0.00       0.00       1.79      10.00      28.54      38.54        0.04     0.01   0.964
  5327                      40.00       0.00       0.00       1.79      10.00      28.54      38.54        0.04     0.01   0.964
  5328                      40.00       0.00       0.00       1.79      10.00      28.54      38.54        0.04     0.01   0.964
  5329                      40.00       0.00       0.00       1.79      10.00      28.54      38.54        0.04     0.01   0.964
  5330                      40.00       0.00       0.00       1.79      10.00      28.54      38.54        0.04     0.01   0.964
  5333                      40.00       0.00       0.00       1.79      10.00      28.54      38.54        0.04     0.01   0.964
  5334                      40.00       0.00       0.00       1.79      10.00      28.54      38.54        0.04     0.01   0.964
  6040                      40.00       0.00       0.00       1.79      10.00      28.54      38.54        0.04     0.01   0.964
  6041                      40.00       0.00       0.00       1.79      10.00      28.54      38.54        0.04     0.01   0.964
  6162                      40.00       0.00       0.00       1.79      10.00      28.54      38.54        0.04     0.01   0.964
  7207                      40.00       0.00       0.00       1.79      10.00      28.54      38.54        0.04     0.01   0.964
  7208                      40.00       0.00       0.00       1.79      10.00      28.54      38.54        0.04     0.01   0.964
  7213                      40.00       0.00       0.00       1.79      10.00      28.54      38.54        0.04     0.01   0.964
  7214                      40.00       0.00       0.00       1.79      10.00      28.54      38.54        0.04     0.01   0.964
  7219                      40.00       0.00       0.00       1.79      10.00      28.54      38.54        0.04     0.01   0.964
  7220                      40.00       0.00       0.00       1.79      10.00      28.54      38.54        0.04     0.01   0.964
  7221                      40.00       0.00       0.00       1.79      10.00      28.54      38.54        0.04     0.01   0.964
  7225                      40.00       0.00       0.00       1.79      10.00      28.54      38.54        0.04     0.01   0.964
  7229                      40.00       0.00       0.00       1.79      10.00      28.54      38.54        0.04     0.01   0.964
  7231                      40.00       0.00       0.00       1.79      10.00      28.54      38.54        0.04     0.01   0.964
  7268                      40.00       0.00       0.00       1.79      10.00      28.54      38.54        0.04     0.01   0.964
  7269                      40.00       0.00       0.00       1.79      10.00      28.54      38.54        0.04     0.01   0.964
  7271                      40.00       0.00       0.00       1.79      10.00      28.54      38.54        0.04     0.01   0.964
  7272                      40.00       0.00       0.00       1.79      10.00      28.54      38.54        0.04     0.01   0.964
  7273                      40.00       0.00       0.00       1.79      10.00      28.54      38.54        0.04     0.01   0.964
  7433                      40.00       0.00       0.00       1.79      10.00      28.54      38.54        0.04     0.01   0.964
  7434                      40.00       0.00       0.00       1.79      10.00      28.54      38.54        0.04     0.01   0.964
  7544                      40.00       0.00       0.00       1.79      10.00      28.54      38.54        0.04     0.01   0.964
  7545                      40.00       0.00       0.00       1.79      10.00      28.54      38.54        0.04     0.01   0.964
  8737                      40.00       0.00       0.00       1.79      10.00      28.54      38.54        0.04     0.01   0.964
  8818                      40.00       0.00       0.00       1.79      10.00      28.54      38.54        0.04     0.01   0.964
  9942                      40.00       0.00       0.00       1.79      10.00      28.54      38.54        0.04     0.01   0.964
  9957                      40.00       0.00       0.00       1.79      10.00      28.54      38.54        0.04     0.01   0.964
  4399                      40.00       0.00       0.00       1.71      10.00      28.48      38.48        0.01     0.00   0.962
  4400                      40.00       0.00       0.00       1.71      10.00      28.48      38.48        0.01     0.00   0.962
  4401                      40.00       0.00       0.00       1.71      10.00      28.48      38.48        0.01     0.00   0.962
  4402                      40.00       0.00       0.00       1.71      10.00      28.48      38.48        0.01     0.00   0.962
  4403                      40.00       0.00       0.00       1.71      10.00      28.48      38.48        0.01     0.00   0.962
  4404                      40.00       0.00       0.00       1.71      10.00      28.48      38.48        0.01     0.00   0.962
  4405                      40.00       0.00       0.00       1.71      10.00      28.48      38.48        0.01     0.00   0.962
  4406                      40.00       0.00       0.00       1.71      10.00      28.48      38.48        0.01     0.00   0.962
  4407                      40.00       0.00       0.00       1.71      10.00      28.48      38.48        0.01     0.00   0.962
  4408                      40.00       0.00       0.00       1.71      10.00      28.48      38.48        0.01     0.00   0.962
  4409                      40.00       0.00       0.00       1.71      10.00      28.48      38.48        0.01     0.00   0.962
  4410                      40.00       0.00       0.00       1.71      10.00      28.48      38.48        0.01     0.00   0.962
  4411                      40.00       0.00       0.00       1.71      10.00      28.48      38.48        0.01     0.00   0.962
  4412                      40.00       0.00       0.00       1.71      10.00      28.48      38.48        0.01     0.00   0.962
  4423                      40.00       0.00       0.00       1.71      10.00      28.48      38.48        0.01     0.00   0.962
  4424                      40.00       0.00       0.00       1.71      10.00      28.48      38.48        0.01     0.00   0.962
  4425                      40.00       0.00       0.00       1.71      10.00      28.48      38.48        0.01     0.00   0.962
  4426                      40.00       0.00       0.00       1.71      10.00      28.48      38.48        0.01     0.00   0.962
  4427                      40.00       0.00       0.00       1.71      10.00      28.48      38.48        0.01     0.00   0.962
  4428                      40.00       0.00       0.00       1.71      10.00      28.48      38.48        0.01     0.00   0.962
  4455                      40.00       0.00       0.00       1.71      10.00      28.48      38.48        0.01     0.00   0.962
  4456                      40.00       0.00       0.00       1.71      10.00      28.48      38.48        0.01     0.00   0.962
  4457                      40.00       0.00       0.00       1.71      10.00      28.48      38.48        0.01     0.00   0.962
  4458                      40.00       0.00       0.00       1.71      10.00      28.48      38.48        0.01     0.00   0.962
  4459                      40.00       0.00       0.00       1.71      10.00      28.48      38.48        0.01     0.00   0.962
  4460                      40.00       0.00       0.00       1.71      10.00      28.48      38.48        0.01     0.00   0.962
  4461                      40.00       0.00       0.00       1.71      10.00      28.48      38.48        0.01     0.00   0.962
  4464                      40.00       0.00       0.00       1.71      10.00      28.48      38.48        0.01     0.00   0.962
  4465                      40.00       0.00       0.00       1.71      10.00      28.48      38.48        0.01     0.00   0.962
  4466                      40.00       0.00       0.00       1.71      10.00      28.48      38.48        0.01     0.00   0.962
  4467                      40.00       0.00       0.00       1.71      10.00      28.48      38.48        0.01     0.00   0.962
  4468                      40.00       0.00       0.00       1.71      10.00      28.48      38.48        0.01     0.00   0.962
  4469                      40.00       0.00       0.00       1.71      10.00      28.48      38.48        0.01     0.00   0.962
  4470                      40.00       0.00       0.00       1.71      10.00      28.48      38.48        0.01     0.00   0.962
  4471                      40.00       0.00       0.00       1.71      10.00      28.48      38.48        0.01     0.00   0.962
  4472                      40.00       0.00       0.00       1.71      10.00      28.48      38.48        0.01     0.00   0.962
  4473                      40.00       0.00       0.00       1.71      10.00      28.48      38.48        0.01     0.00   0.962
  4474                      40.00       0.00       0.00       1.71      10.00      28.48      38.48        0.01     0.00   0.962
  4628                      40.00       0.00       0.00       1.71      10.00      28.48      38.48        0.01     0.00   0.962
  4631                      40.00       0.00       0.00       1.71      10.00      28.48      38.48        0.01     0.00   0.962
  4632                      40.00       0.00       0.00       1.71      10.00      28.48      38.48        0.01     0.00   0.962
  4633                      40.00       0.00       0.00       1.71      10.00      28.48      38.48        0.01     0.00   0.962
  4634                      40.00       0.00       0.00       1.71      10.00      28.48      38.48        0.01     0.00   0.962
  4637                      40.00       0.00       0.00       1.71      10.00      28.48      38.48        0.01     0.00   0.962
  4686                      40.00       0.00       0.00       1.71      10.00      28.48      38.48        0.01     0.00   0.962
  4687                      40.00       0.00       0.00       1.71      10.00      28.48      38.48        0.01     0.00   0.962
  4688                      40.00       0.00       0.00       1.71      10.00      28.48      38.48        0.01     0.00   0.962
  5032                      40.00       0.00       0.00       1.71      10.00      28.48      38.48        0.01     0.00   0.962
  5331                      40.00       0.00       0.00       1.71      10.00      28.48      38.48        0.01     0.00   0.962
  5332                      40.00       0.00       0.00       1.71      10.00      28.48      38.48        0.01     0.00   0.962
  5335                      40.00       0.00       0.00       1.71      10.00      28.48      38.48        0.01     0.00   0.962
  5336                      40.00       0.00       0.00       1.71      10.00      28.48      38.48        0.01     0.00   0.962
  5337                      40.00       0.00       0.00       1.71      10.00      28.48      38.48        0.01     0.00   0.962
  5338                      40.00       0.00       0.00       1.71      10.00      28.48      38.48        0.01     0.00   0.962
  5339                      40.00       0.00       0.00       1.71      10.00      28.48      38.48        0.01     0.00   0.962
  5340                      40.00       0.00       0.00       1.71      10.00      28.48      38.48        0.01     0.00   0.962
  5341                      40.00       0.00       0.00       1.71      10.00      28.48      38.48        0.01     0.00   0.962
  5342                      40.00       0.00       0.00       1.71      10.00      28.48      38.48        0.01     0.00   0.962
  5343                      40.00       0.00       0.00       1.71      10.00      28.48      38.48        0.01     0.00   0.962
  5344                      40.00       0.00       0.00       1.71      10.00      28.48      38.48        0.01     0.00   0.962
  5345                      40.00       0.00       0.00       1.71      10.00      28.48      38.48        0.01     0.00   0.962
  5346                      40.00       0.00       0.00       1.71      10.00      28.48      38.48        0.01     0.00   0.962
  5347                      40.00       0.00       0.00       1.71      10.00      28.48      38.48        0.01     0.00   0.962
  5348                      40.00       0.00       0.00       1.71      10.00      28.48      38.48        0.01     0.00   0.962
  5349                      40.00       0.00       0.00       1.71      10.00      28.48      38.48        0.01     0.00   0.962
  5350                      40.00       0.00       0.00       1.71      10.00      28.48      38.48        0.01     0.00   0.962
  6088                      40.00       0.00       0.00       1.71      10.00      28.48      38.48        0.01     0.00   0.962
  7275                      40.00       0.00       0.00       1.71      10.00      28.48      38.48        0.01     0.00   0.962
  9955                      40.00       0.00       0.00       1.71      10.00      28.48      38.48        0.01     0.00   0.962
  9956                      40.00       0.00       0.00       1.71      10.00      28.48      38.48        0.01     0.00   0.962
  
  
  ****************************
  Subcatchment Washoff Summary
  ****************************
  
  ----------------------------------
                                 COD
  Subcatchment                    kg
  ----------------------------------
  2707                        10.137
  2708                        10.137
  2709                        10.137
  2710                        10.137
  2712                        10.137
  2713                        10.137
  2714                        10.137
  2715                        10.137
  2716                        10.137
  2717                        10.137
  2718                        10.137
  2719                        10.137
  2721                        10.137
  2722                        10.137
  2723                        10.137
  2724                        10.137
  2725                        10.137
  2726                        10.137
  2727                        10.137
  2728                        10.137
  2729                        10.137
  2730                        10.137
  2731                        10.137
  2732                        10.137
  2733                        10.137
  2734                        10.137
  2735                        10.137
  2736                        10.137
  2737                        10.137
  2738                        10.137
  2739                        10.137
  2740                        10.137
  2741                        10.137
  2742                        10.137
  2743                        10.137
  2744                        10.137
  2745                        10.137
  2746                        10.137
  2747                        10.137
  2748                        10.137
  2749                        10.137
  2750                        10.137
  2751                        10.137
  2752                        10.137
  2753                        10.137
  2754                        10.137
  2755                        10.137
  2756                        10.137
  2964                        10.137
  2969                        10.137
  2970                        10.137
  2974                        10.137
  2975                        10.137
  2976                        10.137
  2977                        10.137
  2978                        10.137
  2979                        10.137
  2980                        10.137
  2981                        10.137
  2982                        10.137
  2984                        10.137
  2985                        10.137
  3925                        10.137
  3926                        10.137
  3927                        10.137
  3928                        10.137
  3929                        10.137
  3930                        10.137
  3931                        10.137
  3932                        10.137
  3933                        10.137
  3934                        10.137
  3935                        10.137
  3936                        10.137
  3937                        10.137
  3938                        10.137
  3939                        10.137
  3940                        10.137
  3941                        10.137
  3942                        10.137
  3943                        10.137
  3944                        10.137
  3945                        10.137
  3946                        10.137
  3947                        10.137
  3948                        10.137
  3949                        10.137
  3950                        10.137
  3951                        10.137
  3952                        10.137
  3953                        10.137
  3954                        10.137
  3955                        10.137
  3956                        10.137
  4032                        10.137
  4033                        10.137
  4041                        10.137
  4051                        10.137
  4055                        10.137
  4056                        10.137
  4058                        10.137
  4385                        10.137
  4386                        10.137
  4387                        10.137
  4388                        10.137
  4389                        10.137
  4390                        10.137
  4391                        10.137
  4392                        10.137
  4393                        10.137
  4394                        10.137
  4395                        10.137
  4396                        10.137
  4397                        10.137
  4398                        10.137
  4429                        10.137
  4430                        10.137
  4431                        10.137
  4432                        10.137
  4433                        10.137
  4434                        10.137
  4435                        10.137
  4436                        10.137
  4437                        10.137
  4438                        10.137
  4439                        10.137
  4440                        10.137
  4441                        10.137
  4442                        10.137
  4443                        10.137
  4444                        10.137
  4445                        10.137
  4446                        10.137
  4447                        10.137
  4448                        10.137
  4449                        10.137
  4450                        10.137
  4451                        10.137
  4452                        10.137
  4453                        10.137
  4454                        10.137
  4462                        10.137
  4463                        10.137
  4563                        10.137
  4564                        10.137
  4565                        10.137
  4566                        10.137
  4567                        10.137
  4568                        10.137
  4569                        10.137
  4570                        10.137
  4571                        10.137
  4572                        10.137
  4573                        10.137
  4574                        10.137
  4575                        10.137
  4576                        10.137
  4577                        10.137
  4578                        10.137
  4579                        10.137
  4580                        10.137
  4581                        10.137
  4624                        10.137
  4625                        10.137
  4644                        10.137
  4645                        10.137
  4646                        10.137
  4679                        10.137
  4680                        10.137
  4681                        10.137
  4682                        10.137
  4683                        10.137
  4711                        10.137
  4712                        10.137
  4713                        10.137
  4714                        10.137
  4715                        10.137
  4716                        10.137
  4717                        10.137
  4718                        10.137
  4722                        10.137
  4760                        10.137
  4761                        10.137
  4765                        10.137
  4766                        10.137
  4767                        10.137
  4768                        10.137
  4769                        10.137
  4855                        10.137
  4856                        10.137
  5284                        10.137
  5285                        10.137
  5286                        10.137
  5287                        10.137
  5288                        10.137
  5289                        10.137
  5290                        10.137
  5291                        10.137
  5292                        10.137
  5293                        10.137
  5294                        10.137
  5295                        10.137
  5296                        10.137
  5297                        10.137
  5298                        10.137
  5299                        10.137
  5300                        10.137
  5301                        10.137
  5302                        10.137
  5303                        10.137
  5304                        10.137
  5305                        10.137
  5306                        10.137
  5307                        10.137
  5308                        10.137
  5309                        10.137
  5310                        10.137
  5311                        10.137
  5312                        10.137
  5313                        10.137
  5314                        10.137
  5315                        10.137
  5316                        10.137
  5317                        10.137
  5318                        10.137
  5319                        10.137
  5320                        10.137
  5321                        10.137
  5322                        10.137
  5323                        10.137
  5324                        10.137
  5325                        10.137
  5326                        10.137
  5327                        10.137
  5328                        10.137
  5329                        10.137
  5330                        10.137
  5333                        10.137
  5334                        10.137
  6040                        10.137
  6041                        10.137
  6162                        10.137
  7207                        10.137
  7208                        10.137
  7213                        10.137
  7214                        10.137
  7219                        10.137
  7220                        10.137
  7221                        10.137
  7225                        10.137
  7229                        10.137
  7231                        10.137
  7268                        10.137
  7269                        10.137
  7271                        10.137
  7272                        10.137
  7273                        10.137
  7433                        10.137
  7434                        10.137
  7544                        10.137
  7545                        10.137
  8737                        10.137
  8818                        10.137
  9942                        10.137
  9957                        10.137
  4399                         3.036
  4400                         3.036
  4401                         3.036
  4402                         3.036
  4403                         3.036
  4404                         3.036
  4405                         3.036
  4406                         3.036
  4407                         3.036
  4408                         3.036
  4409                         3.036
  4410                         3.036
  4411                         3.036
  4412                         3.036
  4423                         3.036
  4424                         3.036
  4425                         3.036
  4426                         3.036
  4427                         3.036
  4428                         3.036
  4455                         3.036
  4456                         3.036
  4457                         3.036
  4458                         3.036
  4459                         3.036
  4460                         3.036
  4461                         3.036
  4464                         3.036
  4465                         3.036
  4466                         3.036
  4467                         3.036
  4468                         3.036
  4469                         3.036
  4470                         3.036
  4471                         3.036
  4472                         3.036
  4473                         3.036
  4474                         3.036
  4628                         3.036
  4631                         3.036
  4632                         3.036
  4633                         3.036
  4634                         3.036
  4637                         3.036
  4686                         3.036
  4687                         3.036
  4688                         3.036
  5032                         3.036
  5331                         3.036
  5332                         3.036
  5335                         3.036
  5336                         3.036
  5337                         3.036
  5338                         3.036
  5339                         3.036
  5340                         3.036
  5341                         3.036
  5342                         3.036
  5343                         3.036
  5344                         3.036
  5345                         3.036
  5346                         3.036
  5347                         3.036
  5348                         3.036
  5349                         3.036
  5350                         3.036
  6088                         3.036
  7275                         3.036
  9955                         3.036
  9956                         3.036
  ----------------------------------
  System                    2898.894
  
  
  ******************
  Node Depth Summary
  ******************
  
  ---------------------------------------------------------------------------------
                                 Average  Maximum  Maximum  Time of Max    Reported
                                   Depth    Depth      HGL   Occurrence   Max Depth
  Node                 Type       Meters   Meters   Meters  days hr:min      Meters
  ---------------------------------------------------------------------------------
  Node_02706           JUNCTION     2.09     3.39   100.23     0  04:17        0.00
  Node_02707           JUNCTION     0.54     2.19   101.62     0  04:17        0.00
  Node_02708           JUNCTION     0.50     2.32   102.07     0  04:16        0.00
  Node_02709           JUNCTION     0.58     2.52   102.16     0  04:16        0.00
  Node_02711           JUNCTION     0.25     2.23   102.14     0  04:16        0.00
  Node_02712           JUNCTION     0.26     2.22   102.12     0  04:16        0.00
  Node_02713           JUNCTION     0.30     2.22   102.07     0  04:16        0.00
  Node_02714           JUNCTION     0.06     1.67   102.07     0  04:16        0.00
  Node_02715           JUNCTION     0.30     2.09   101.90     0  04:16        0.00
  Node_02716           JUNCTION     0.34     2.01   101.73     0  04:16        0.00
  Node_02717           JUNCTION     0.39     1.99   101.63     0  04:16        0.00
  Node_02718           JUNCTION     0.39     2.02   101.62     0  04:17        0.00
  Node_02720           JUNCTION     0.41     2.07   101.63     0  04:17        0.00
  Node_02721           JUNCTION     0.70     2.40   101.65     0  04:17        0.00
  Node_02722           JUNCTION     0.14     0.19   101.99     0  04:15        0.00
  Node_02723           JUNCTION     0.64     2.32   101.61     0  04:17        0.00
  Node_02724           JUNCTION     0.49     2.14   101.56     0  04:17        0.00
  Node_02725           JUNCTION     0.51     2.13   101.49     0  04:17        0.00
  Node_02726           JUNCTION     0.58     2.16   101.42     0  04:17        0.00
  Node_02727           JUNCTION     0.68     2.23   101.35     0  04:17        0.00
  Node_02728           JUNCTION     0.18     1.28   101.36     0  04:17        0.00
  Node_02729           JUNCTION     0.72     2.23   101.29     0  04:17        0.00
  Node_02730           JUNCTION     0.74     2.20   101.23     0  04:17        0.00
  Node_02731           JUNCTION     1.16     2.61   101.20     0  04:18        0.00
  Node_02732           JUNCTION     0.72     2.18   101.20     0  04:18        0.00
  Node_02733           JUNCTION     0.71     2.16   101.17     0  04:18        0.00
  Node_02734           JUNCTION     0.98     2.44   101.15     0  04:18        0.00
  Node_02735           JUNCTION     0.88     2.34   101.15     0  04:18        0.00
  Node_02736           JUNCTION     1.06     2.50   101.11     0  04:18        0.00
  Node_02737           JUNCTION     1.03     2.47   101.09     0  04:18        0.00
  Node_02738           JUNCTION     0.84     2.28   101.05     0  04:18        0.00
  Node_02739           JUNCTION     0.70     2.11   100.97     0  04:18        0.00
  Node_02740           JUNCTION     0.70     2.09   100.93     0  04:18        0.00
  Node_02741           JUNCTION     0.38     1.64   100.93     0  04:18        0.00
  Node_02742           JUNCTION     0.70     2.08   100.88     0  04:18        0.00
  Node_02743           JUNCTION     1.09     2.44   100.81     0  04:18        0.00
  Node_02744           JUNCTION     0.30     1.47   100.81     0  04:18        0.00
  Node_02745           JUNCTION     0.80     2.14   100.76     0  04:18        0.00
  Node_02746           JUNCTION     0.68     1.99   100.69     0  04:19        0.00
  Node_02747           JUNCTION     0.06     0.38   100.73     0  04:16        0.00
  Node_02748           JUNCTION     0.04     0.24   100.69     0  04:19        0.00
  Node_02749           JUNCTION     0.67     1.94   100.58     0  04:19        0.00
  Node_02750           JUNCTION     0.65     1.90   100.51     0  04:18        0.00
  Node_02751           JUNCTION     0.61     1.85   100.44     0  04:16        0.00
  Node_02752           JUNCTION     0.60     1.83   100.37     0  04:16        0.00
  Node_02753           JUNCTION     0.60     1.82   100.30     0  04:17        0.00
  Node_02754           JUNCTION     0.62     1.92   100.23     0  04:17        0.00
  Node_02755           JUNCTION     1.54     2.84   100.23     0  04:17        0.00
  Node_02963           JUNCTION     0.25     1.72   101.63     0  04:16        0.00
  Node_02968           JUNCTION     0.11     0.86   100.98     0  04:18        0.00
  Node_02969           JUNCTION     0.13     0.93   100.81     0  04:18        0.00
  Node_02973           JUNCTION     1.06     2.35   100.24     0  04:17        0.00
  Node_02974           JUNCTION     1.14     2.46    99.59     0  04:38        0.00
  Node_02975           JUNCTION     1.15     2.47    99.61     0  04:38        0.00
  Node_02976           JUNCTION     1.26     2.53    99.72     0  04:38        0.00
  Node_02977           JUNCTION     1.37     2.95   100.28     0  04:17        0.00
  Node_02978           JUNCTION     1.29     2.96   100.49     0  04:17        0.00
  Node_02979           JUNCTION     1.04     2.40    99.52     0  04:38        0.00
  Node_02980           JUNCTION     0.91     2.34    99.42     0  04:37        0.00
  Node_02981           JUNCTION     0.86     2.39    99.34     0  04:37        0.00
  Node_02983           JUNCTION     0.10     0.92   101.04     0  04:18        0.00
  Node_02984           JUNCTION     1.70     3.23   100.21     0  04:17        0.00
  Node_03924           JUNCTION     0.12     1.00   101.82     0  01:26        0.00
  Node_03925           JUNCTION     0.41     2.06   102.43     0  04:11        0.00
  Node_03926           JUNCTION     0.06     0.96   102.43     0  04:10        0.00
  Node_03927           JUNCTION     0.39     2.05   102.43     0  04:10        0.00
  Node_03928           JUNCTION     0.41     2.08   102.42     0  04:10        0.00
  Node_03929           JUNCTION     0.42     2.10   102.40     0  04:10        0.00
  Node_03930           JUNCTION     0.44     2.13   102.38     0  04:12        0.00
  Node_03931           JUNCTION     0.43     2.12   102.37     0  04:10        0.00
  Node_03932           JUNCTION     0.47     2.16   102.32     0  04:10        0.00
  Node_03933           JUNCTION     0.47     2.13   102.25     0  04:14        0.00
  Node_03934           JUNCTION     0.14     1.39   102.26     0  04:10        0.00
  Node_03935           JUNCTION     0.54     2.17   102.15     0  04:14        0.00
  Node_03936           JUNCTION     0.56     2.12   102.05     0  04:15        0.00
  Node_03937           JUNCTION     1.24     1.77   101.93     0  04:09        0.00
  Node_03938           JUNCTION     1.64     3.27   102.46     0  01:24        0.00
  Node_03939           JUNCTION     1.75     3.41   102.45     0  01:24        0.00
  Node_03940           JUNCTION     1.83     3.48   102.41     0  01:24        0.00
  Node_03941           JUNCTION     1.92     3.53   102.34     0  01:24        0.00
  Node_03942           JUNCTION     1.95     3.53   102.28     0  04:11        0.00
  Node_03943           JUNCTION     2.05     3.58   102.19     0  01:24        0.00
  Node_03944           JUNCTION     2.15     3.69   102.17     0  01:24        0.00
  Node_03945           JUNCTION     2.21     3.78   102.20     0  01:24        0.00
  Node_03946           JUNCTION     2.27     3.90   102.26     0  01:24        0.00
  Node_03947           JUNCTION     2.47     4.32   102.21     0  04:05        0.00
  Node_03948           JUNCTION     2.38     4.31   102.16     0  04:05        0.00
  Node_03949           JUNCTION     2.44     4.41   102.11     0  01:27        0.00
  Node_03950           JUNCTION     2.26     4.26   102.03     0  01:27        0.00
  Node_03951           JUNCTION     2.18     4.18   101.87     0  01:27        0.00
  Node_03952           JUNCTION     2.10     4.05   101.64     0  01:27        0.00
  Node_03953           JUNCTION     1.91     3.78   101.35     0  01:27        0.00
  Node_03954           JUNCTION     2.69     4.34   100.92     0  01:27        0.00
  Node_03955           JUNCTION     1.53     2.91   100.40     0  01:27        0.00
  Node_04031           JUNCTION     0.35     1.03   102.26     0  01:24        0.00
  Node_04032           JUNCTION     2.16     3.89   102.24     0  01:24        0.00
  Node_04040           JUNCTION     0.85     1.87   102.42     0  01:25        0.00
  Node_04050           JUNCTION     0.32     1.61   102.57     0  04:26        0.00
  Node_04054           JUNCTION     0.10     1.28   102.42     0  04:10        0.00
  Node_04055           JUNCTION     0.23     1.51   102.32     0  04:10        0.00
  Node_04057           JUNCTION     0.25     1.60   101.91     0  01:27        0.00
  Node_04384           JUNCTION     1.48     3.37   100.95     0  04:15        0.00
  Node_04385           JUNCTION     1.21     3.17   101.09     0  04:15        0.00
  Node_04386           JUNCTION     1.22     3.22   101.16     0  04:15        0.00
  Node_04387           JUNCTION     1.22     3.26   101.23     0  04:15        0.00
  Node_04388           JUNCTION     1.23     3.33   101.33     0  04:15        0.00
  Node_04389           JUNCTION     0.15     0.99   101.35     0  04:15        0.00
  Node_04390           JUNCTION     1.23     3.33   101.35     0  04:14        0.00
  Node_04391           JUNCTION     1.24     3.38   101.45     0  04:13        0.00
  Node_04392           JUNCTION     1.35     3.51   101.47     0  04:13        0.00
  Node_04393           JUNCTION     1.24     3.42   101.53     0  04:13        0.00
  Node_04394           JUNCTION     0.25     1.89   101.53     0  04:13        0.00
  Node_04395           JUNCTION     1.24     3.44   101.59     0  04:13        0.00
  Node_04396           JUNCTION     1.23     3.45   101.65     0  04:13        0.00
  Node_04397           JUNCTION     0.16     1.75   101.65     0  04:13        0.00
  Node_04428           JUNCTION     1.25     3.47   101.69     0  04:13        0.00
  Node_04429           JUNCTION     1.25     3.45   101.70     0  04:13        0.00
  Node_04430           JUNCTION     1.24     3.44   101.72     0  04:13        0.00
  Node_04431           JUNCTION     1.01     3.15   101.72     0  04:13        0.00
  Node_04432           JUNCTION     0.92     3.03   101.71     0  04:13        0.00
  Node_04433           JUNCTION     0.74     2.84   101.72     0  04:13        0.00
  Node_04434           JUNCTION     1.03     3.12   101.71     0  04:13        0.00
  Node_04435           JUNCTION     0.87     2.92   101.70     0  04:13        0.00
  Node_04436           JUNCTION     1.27     3.30   101.70     0  04:13        0.00
  Node_04437           JUNCTION     1.40     3.40   101.69     0  04:14        0.00
  Node_04438           JUNCTION     1.70     3.70   101.71     0  04:14        0.00
  Node_04439           JUNCTION     0.75     2.75   101.72     0  04:14        0.00
  Node_04440           JUNCTION     0.74     2.73   101.74     0  04:14        0.00
  Node_04441           JUNCTION     0.48     2.41   101.74     0  04:14        0.00
  Node_04442           JUNCTION     0.80     2.78   101.75     0  04:15        0.00
  Node_04443           JUNCTION     0.66     2.63   101.77     0  04:14        0.00
  Node_04444           JUNCTION     0.65     2.60   101.77     0  04:15        0.00
  Node_04445           JUNCTION     0.58     2.54   101.81     0  04:11        0.00
  Node_04446           JUNCTION     0.55     2.50   101.84     0  04:11        0.00
  Node_04447           JUNCTION     0.49     2.43   101.87     0  04:11        0.00
  Node_04448           JUNCTION     0.51     2.47   101.92     0  04:11        0.00
  Node_04449           JUNCTION     0.52     2.50   101.95     0  04:11        0.00
  Node_04450           JUNCTION     0.67     2.63   101.95     0  04:11        0.00
  Node_04451           JUNCTION     0.49     2.40   101.94     0  04:10        0.00
  Node_04452           JUNCTION     0.27     2.16   101.98     0  04:10        0.00
  Node_04453           JUNCTION     0.14     1.77   101.99     0  04:10        0.00
  Node_04461           JUNCTION     0.45     2.29   101.91     0  04:10        0.00
  Node_04462           JUNCTION     0.44     2.35   102.00     0  04:10        0.00
  Node_04562           JUNCTION     0.43     2.46   102.05     0  04:09        0.00
  Node_04563           JUNCTION     0.77     2.92   102.04     0  04:09        0.00
  Node_04564           JUNCTION     0.56     2.68   102.06     0  04:09        0.00
  Node_04565           JUNCTION     0.58     2.72   102.08     0  04:09        0.00
  Node_04566           JUNCTION     0.72     2.88   102.08     0  04:09        0.00
  Node_04567           JUNCTION     0.67     2.83   102.05     0  04:09        0.00
  Node_04568           JUNCTION     0.68     2.84   102.02     0  04:09        0.00
  Node_04569           JUNCTION     0.85     3.04   102.01     0  04:09        0.00
  Node_04570           JUNCTION     0.39     2.29   102.02     0  04:09        0.00
  Node_04571           JUNCTION     0.87     2.99   101.92     0  04:09        0.00
  Node_04572           JUNCTION     2.25     4.44   101.97     0  04:11        0.00
  Node_04573           JUNCTION     1.93     4.16   101.99     0  04:11        0.00
  Node_04574           JUNCTION     2.27     3.73   102.03     0  04:12        0.00
  Node_04575           JUNCTION     2.41     4.71   102.02     0  04:12        0.00
  Node_04576           JUNCTION     1.03     3.33   101.98     0  04:11        0.00
  Node_04577           JUNCTION     1.06     3.34   101.92     0  04:11        0.00
  Node_04578           JUNCTION     1.09     3.36   101.86     0  04:13        0.00
  Node_04579           JUNCTION     1.15     3.40   101.81     0  04:13        0.00
  Node_04580           JUNCTION     0.27     1.98   101.76     0  04:10        0.00
  Node_04623           JUNCTION     0.14     1.43   101.09     0  04:15        0.00
  Node_04624           JUNCTION     0.37     2.25   101.71     0  04:13        0.00
  Node_04643           JUNCTION     0.24     2.06   101.97     0  04:11        0.00
  Node_04644           JUNCTION     0.25     1.93   101.77     0  04:11        0.00
  Node_04645           JUNCTION     0.44     2.05   101.65     0  04:11        0.00
  Node_04678           JUNCTION     0.24     1.96   101.68     0  04:13        0.00
  Node_04679           JUNCTION     0.06     0.91   101.09     0  04:15        0.00
  Node_04680           JUNCTION     1.25     3.08   100.85     0  04:15        0.00
  Node_04681           JUNCTION     1.23     2.99   100.71     0  04:16        0.00
  Node_04682           JUNCTION     0.09     0.99   102.00     0  04:11        0.00
  Node_04710           JUNCTION     0.37     2.01   102.00     0  05:09        0.00
  Node_04711           JUNCTION     0.44     2.61   102.60     0  04:48        0.00
  Node_04712           JUNCTION     0.45     2.61   102.62     0  04:24        0.00
  Node_04713           JUNCTION     0.40     2.58   102.63     0  04:14        0.00
  Node_04714           JUNCTION     0.45     2.60   102.65     0  04:25        0.00
  Node_04715           JUNCTION     0.42     2.52   102.61     0  04:25        0.00
  Node_04716           JUNCTION     0.43     2.46   102.59     0  04:33        0.00
  Node_04717           JUNCTION     0.14     1.24   101.54     0  04:14        0.00
  Node_04721           JUNCTION     0.25     1.62   101.97     0  04:11        0.00
  Node_04759           JUNCTION     0.26     1.81   101.99     0  04:12        0.00
  Node_04760           JUNCTION     0.13     0.16    99.62     0  01:30        0.00
  Node_04764           JUNCTION     0.29     1.59   101.51     0  04:11        0.00
  Node_04765           JUNCTION     0.17     1.53   101.95     0  04:10        0.00
  Node_04766           JUNCTION     0.44     2.26   102.03     0  04:09        0.00
  Node_04767           JUNCTION     0.41     2.26   102.09     0  04:09        0.00
  Node_04768           JUNCTION     0.46     2.35   102.01     0  04:09        0.00
  Node_04854           JUNCTION     0.06     1.01   101.45     0  04:13        0.00
  Node_04855           JUNCTION     0.67     2.11   102.03     0  04:12        0.00
  Node_05283           JUNCTION     2.07     3.66   102.28     0  01:24        0.00
  Node_05284           JUNCTION     2.05     3.61   102.27     0  01:24        0.00
  Node_05285           JUNCTION     2.00     3.47   102.22     0  01:24        0.00
  Node_05286           JUNCTION     1.97     3.42   102.22     0  01:24        0.00
  Node_05287           JUNCTION     1.95     3.42   102.27     0  01:27        0.00
  Node_05288           JUNCTION     1.94     3.41   102.28     0  01:24        0.00
  Node_05289           JUNCTION     1.41     2.70   102.22     0  01:24        0.00
  Node_05290           JUNCTION     1.93     3.40   102.29     0  01:24        0.00
  Node_05291           JUNCTION     1.73     3.19   102.39     0  01:25        0.00
  Node_05292           JUNCTION     1.69     3.17   102.42     0  01:25        0.00
  Node_05293           JUNCTION     1.68     3.17   102.43     0  01:25        0.00
  Node_05294           JUNCTION     1.65     3.13   102.44     0  01:25        0.00
  Node_05295           JUNCTION     1.68     3.17   102.44     0  01:25        0.00
  Node_05296           JUNCTION     1.66     3.14   102.46     0  01:25        0.00
  Node_05297           JUNCTION     1.45     2.79   102.30     0  01:24        0.00
  Node_05298           JUNCTION     1.61     3.06   102.45     0  01:25        0.00
  Node_05299           JUNCTION     1.60     3.06   102.47     0  01:25        0.00
  Node_05300           JUNCTION     1.57     2.99   102.45     0  01:25        0.00
  Node_05301           JUNCTION     1.53     2.93   102.42     0  01:25        0.00
  Node_05302           JUNCTION     1.54     2.94   102.45     0  01:25        0.00
  Node_05303           JUNCTION     1.50     2.88   102.43     0  01:25        0.00
[...]
  Link_05459                  1.50      1.50      1.77      0.02         0.01
  Link_05460                  1.83      1.83      2.14      0.01         0.01
  Link_05461                  2.53      2.53      2.59      0.02         0.05
  Link_05462                  2.85      2.85      2.88      1.66         1.47
  Link_05463                  2.92      2.95      2.93      2.81         2.63
  Link_05464                  3.05      3.05      3.07      0.01         0.84
  Link_05496                  4.59      4.60      4.59      4.64         4.59
  Link_05662                  0.79      0.79      1.01      0.01         0.02
  Link_05663                  1.92      1.92      2.72      0.01         0.01
  Link_05664                  4.64      4.64      4.66      0.04         0.05
  Link_05665                  4.66      4.73      4.66      5.05         4.66
  Link_05677                  4.65      4.66      4.65      4.47         4.31
  Link_05678                  2.96      2.96      2.96      0.01         0.01
  Link_05720                  4.09      4.17      4.09      3.06         2.51
  Link_05721                  4.38      4.39      4.38      2.91         2.49
  Link_05722                  0.89      0.89      1.05      0.01         0.01
  Link_05723                  0.77      0.77      1.52      0.01         0.01
  Link_05725                  0.02      0.02      0.15      0.01         0.01
  Link_05726                  3.80      3.80      3.93      0.01         0.01
  Link_05727                  3.79      3.79      3.83      0.01         0.05
  Link_05728                  2.66      2.66      2.77      0.01         0.01
  Link_05729                  1.63      1.63      1.65      0.30         0.40
  Link_05730                  2.34      2.34      2.38      0.01         0.01
  Link_05731                  2.41      2.42      2.42      1.00         1.19
  Link_05732                  2.10      2.10      2.18      0.01         0.01
  Link_05742                  1.27      1.27      1.33      0.01         0.01
  Link_05743                  3.74      3.74      3.89      0.02         0.04
  Link_05744                  4.64      4.64      4.65      0.34         0.33
  Link_05752                  0.76      0.76      0.78      0.13         0.01
  Link_05753                  0.44      0.44      0.45      0.01         0.07
  Link_05754                  0.02      0.02      0.13      0.01         0.01
  Link_05791                  1.33      1.33      1.99      0.01         0.01
  Link_05812                  4.12      4.12      4.30      0.01         0.01
  Link_05813                  3.75      3.75      3.80      0.01         0.01
  Link_05814                  3.46      3.46      3.51      0.03         0.01
  Link_05815                  3.36      3.36      3.40      0.01         0.01
  Link_05816                  1.82      1.82      1.83      0.01         0.01
  Link_05817                  1.83      1.83      1.85      0.01         0.01
  Link_05818                  1.83      1.83      1.83      0.01         0.01
  Link_05983                  0.13      0.13      0.16      0.01         0.01
  Link_07220                  1.87      1.87      1.92      0.10         0.18
  Link_07221                  1.92      1.92      1.92      1.15         1.08
  Link_07222                  1.89      1.92      1.90      1.47         1.40
  Link_07230                  1.89      1.90      1.91      1.10         1.02
  Link_07231                  1.80      1.91      1.80      2.01         1.62
  Link_07233                  2.00      2.29      2.00      2.90         2.00
  Link_07234                  2.12      2.18      2.12      3.54         2.11
  Link_07235                  2.33      2.33      2.38      0.68         0.66
  Link_07270                  0.49      0.49      0.76      0.01         0.01
  Link_07271                  0.74      0.75      1.11      0.01         0.07
  Link_07274                  0.43      0.43      0.44      0.01         0.02
  Link_07277                  1.31      1.32      1.63      0.05         0.10
  Link_07278                  1.67      1.72      1.74      0.08         0.15
  Link_07295                  1.73      1.74      1.84      0.09         0.12
  Link_07296                  1.84      1.84      1.87      0.51         0.31
  Link_07297                  1.86      1.87      1.87      1.11         1.08
  Link_07303                  1.71      1.71      1.73      0.01         0.04
  Link_07306                  0.72      0.72      1.45      0.01         0.01
  Link_07464                  3.59      3.60      3.62      0.01         0.01
  Link_07578                  0.85      0.85      0.89      0.01         0.01
  Link_07579                  1.30      1.30      1.47      0.01         0.01
  Link_07580                  1.20      1.20      1.30      0.01         0.01
  Link_07687                  3.88      3.88      3.91      0.01         0.01
  Link_07865                  1.85      1.85      1.85      0.01         0.38
  Link_08891                  0.68      0.68      1.21      0.01         0.01
  Link_08912                  0.29      0.29      1.82      0.01         0.01
  Link1_to_ChengXi            2.69      3.01      2.76      0.82         0.10
  Link2_to_ChengXi            2.43      4.91      2.43      5.02         2.43
  Link3_to_ChengXi            0.01      2.23      0.01      2.36         0.01
  Link_to_LaoDongLu           2.38      2.38      2.39      0.01         0.01
  
  
  ***************
  Pumping Summary
  ***************
  
  ---------------------------------------------------------------------------------------------------------
                                                  Min       Avg       Max     Total     Power    % Time Off
                        Percent   Number of      Flow      Flow      Flow    Volume     Usage    Pump Curve
  Pump                 Utilized   Start-Ups       CMS       CMS       CMS  10^6 ltr     Kw-hr    Low   High
  ---------------------------------------------------------------------------------------------------------
  Pump_ChengXi1           85.69         263      0.00      0.17      0.17     3.091     44.31    0.0    0.0
  Pump_ChengXi2           85.69         264      0.00      0.17      0.17     3.091     44.31    0.0    0.0
  Pump_ChengXi3           85.69         264      0.00      0.17      0.17     3.091     44.31    0.0    0.0
  Pump_ChengXi4           48.22          80      0.00      0.17      0.17     1.739     28.08    0.0    0.0
  Pump_LaoDongLu1         47.22           1      0.00      0.03      0.03     0.284      1.76    0.0    0.0
  Pump_LaoDongLu2         47.22           2      0.00      0.03      0.03     0.284      1.76    0.0    0.0
  Pump_LaoDongLu3          0.00           0      0.00      0.00      0.00     0.000      0.00    0.0    0.0
  outfallpump             98.91          47      0.00      0.39      0.45     8.395    175.96    0.0    0.0
  
  
  ***************************
  Link Pollutant Load Summary
  ***************************
  
  ----------------------------------
                                 COD
  Link                            kg
  ----------------------------------
  Link_01146                  33.579
  Link_01147                  43.914
  Link_01148                  54.104
  Link_01149                  63.341
  Link_01150                  73.319
  Link_01151                  67.750
  Link_01152                  60.175
  Link_01274                  11.993
  Link_01275                  22.734
  Link_01276                  48.849
  Link_01292                  16.147
  Link_01294                  69.400
  Link_01295                  79.118
  Link_01296                  89.214
  Link_01297                 115.070
  Link_01298                  11.982
  Link_01299                 137.384
  Link_01300                 147.661
  Link_01301                 157.909
  Link_01302                  11.888
  Link_01312                  15.589
  Link_01313                 378.351
  Link_01314                 388.570
  Link_01315                 398.752
  Link_01316                 408.955
  Link_01317                 419.146
  Link_01318                 429.645
  Link_01319                 440.237
  Link_01320                 486.631
  Link_01323                 257.801
  Link_01324                  14.258
  Link_01325                 282.330
  Link_01326                 292.812
  Link_01327                 247.348
  Link_01328                  13.432
  Link_01329                 266.988
  Link_01330                 277.533
  Link_01331                 287.712
  Link_01332                 200.122
  Link_01333                  14.049
  Link_01334                 224.299
  Link_01335                  16.091
  Link_01336                 250.300
  Link_01337                 165.175
  Link_01338                  14.516
  Link_01339                 143.948
  Link_01340                  12.223
  Link_01341                 135.111
  Link_01342                  13.723
  Link_01343                 143.939
  Link_01344                  23.359
  Link_01345                 155.018
  Link_01346                 160.642
  Link_01347                  23.880
  Link_01348                 155.165
  Link_01349                  22.663
  Link_01350                 160.325
  Link_01351                  14.527
  Link_01352                 169.653
  Link_01556                  16.190
  Link_01557                  30.979
  Link_01558                2251.222
  Link_01559                  34.667
  Link_01560                2240.280
  Link_01561                2297.570
  Link_01562                2309.885
  Link_01563                2320.183
  Link_01564                  10.283
  Link_01565                 131.333
  Link_01566                  10.739
  Link_01567                  13.830
  Link_01568                 142.698
  Link_01569                  21.476
  Link_01570                 154.699
  Link_01571                 138.805
  Link_01572                 184.218
  Link_01573                 117.827
  Link_01574                 107.329
  Link_01575                  15.128
  Link_01576                  82.100
  Link_01577                  57.386
  Link_01578                  45.829
  Link_01579                  14.403
  Link_01580                   6.068
  Link_01581                   9.475
  Link_01582                   8.337
  Link_01731                  25.422
  Link_01732                  42.468
  Link_01733                  56.279
  Link_01734                  16.106
  Link_01735                  16.475
  Link_01751                 102.619
  Link_01752                 110.003
  Link_01753                 129.087
  Link_01754                 137.518
  Link_01755                 147.580
  Link_01756                  11.925
  Link_01757                 176.902
  Link_01758                  13.148
  Link_01759                  13.141
  Link_01760                 194.601
  Link_01761                 198.885
  Link_01762                 204.932
  Link_01763                  15.620
  Link_01764                 219.931
  Link_01765                 228.592
  Link_01766                 230.433
  Link_01767                 441.772
  Link_01768                 451.099
  Link_01769                 461.806
  Link_01770                 472.200
  Link_01771                 482.461
  Link_01772                  31.760
  Link_01773                 519.291
  Link_01774                  35.808
  Link_01775                 219.120
  Link_01776                 204.691
  Link_01777                 189.221
  Link_01778                 303.145
  Link_01779                 156.907
  Link_01780                 278.695
  Link_01781                  62.206
  Link_01782                 584.390
  Link_01783                  13.318
  Link_01784                 608.343
  Link_01785                 620.108
  Link_01786                  63.668
  Link_01787                  35.007
  Link_01788                 726.840
  Link_01789                 740.010
  Link_01790                  18.989
  Link_01791                  18.315
  Link_01792                  19.590
  Link_01793                 798.378
  Link_01794                 810.120
  Link_01795                 821.787
  Link_01796                 833.434
  Link_01797                 843.157
  Link_01798                1323.757
  Link_01799                1315.844
  Link_01800                1332.389
  Link_01801                 883.245
  Link_01802                1265.708
  Link_01803                1306.928
  Link_01804                1148.164
  Link_01805                1138.250
  Link_01806                1128.763
  Link_01807                1117.874
  Link_01808                  17.260
  Link_01809                1093.121
  Link_01810                1073.385
  Link_01811                  10.163
  Link_01812                  55.184
  Link_01813                  45.771
  Link_01814                1036.166
  Link_01815                1027.007
  Link_01816                1006.722
  Link_01817                  11.886
  Link_01818                 970.351
  Link_01819                 945.911
  Link_01820                  15.280
  Link_01821                  28.426
  Link_01822                   5.934
  Link_01823                 228.441
  Link_01824                 225.197
  Link_01825                  54.942
  Link_01826                  57.009
  Link_01827                   3.462
  Link_01828                  61.771
  Link_01829                   6.114
  Link_01830                  68.429
  Link_01831                   3.389
  Link_01832                  72.836
  Link_01833                  73.991
  Link_01834                  78.198
  Link_01835                   3.477
  Link_01836                  58.970
  Link_01837                  20.540
  Link_01838                  38.532
  Link_01839                  54.375
  Link_01840                  50.484
  Link_01841                  46.969
  Link_01842                  36.384
  Link_01843                  25.404
  Link_01844                  20.983
  Link_02074                  13.733
  Link_02075                 209.832
  Link_02076                 235.094
  Link_02077                  23.478
  Link_02078                 268.240
  Link_02079                  15.476
  Link_02080                 292.775
  Link_02081                 301.930
  Link_02082                 311.106
  Link_02083                  15.695
  Link_02084                  13.855
  Link_02085                 611.881
  Link_02086                 593.740
  Link_02087                 586.366
  Link_02088                 578.679
  Link_02089                 571.203
  Link_02090                 554.103
  Link_02091                 545.644
  Link_02092                 537.475
  Link_02093                  13.628
  Link_02094                 510.558
  Link_02095                 501.907
  Link_02096                 460.120
  Link_02097                  20.685
  Link_02098                  27.320
  Link_02099                 450.180
  Link_02100                 439.659
  Link_02101                  21.949
  Link_02102                 403.513
  Link_02103                 372.883
  Link_02104                  29.586
  Link_02105                 271.794
  Link_02106                  18.093
  Link_02107                  10.468
  Link_02108                 245.452
  Link_02109                 229.778
  Link_02110                 306.913
  Link_02111                 218.097
  Link_02112                  18.996
  Link_02113                 160.425
  Link_02114                  57.161
  Link_02115                  52.798
  Link_02116                  49.184
  Link_02117                  46.228
  Link_02118                  43.030
  Link_02123                   6.578
  Link_02124                   9.927
  Link_02125                  13.565
  Link_02126                  17.175
  Link_02127                  39.262
  Link_02128                  38.051
  Link_02129                  66.461
  Link_02130                  27.274
  Link_02131                  26.540
  Link_02132                  23.783
  Link_02133                  17.864
  Link_02134                 163.648
  Link_02135                 166.927
  Link_02136                 176.365
  Link_02137                   7.761
  Link_02138                 202.872
  Link_02139                 199.481
  Link_02140                 195.890
  Link_02141                 192.648
  Link_02142                 189.147
  Link_02143                 179.572
  Link_02383                  10.867
  Link_02384                  19.931
  Link_02385                  30.644
  Link_02386                  27.989
  Link_02387                  68.778
  Link_02388                  78.156
  Link_02389                  27.123
  Link_02390                  88.020
  Link_02391                 125.322
  Link_02392                  40.286
  Link_02393                 173.617
  Link_05459                  94.415
  Link_05460                 190.992
  Link_05461                 224.690
  Link_05462                 560.497
  Link_05463                 786.741
  Link_05464                  44.279
  Link_05496                2226.554
  Link_05662                  59.161
  Link_05663                  11.882
  Link_05664                  63.532
  Link_05665                 496.976
  Link_05677                 347.621
  Link_05678                  20.851
  Link_05720                1255.554
  Link_05721                1063.048
  Link_05722                  18.865
  Link_05723                 121.900
  Link_05725                  22.447
  Link_05726                 619.345
  Link_05727                  11.848
  Link_05728                 518.894
  Link_05729                 414.689
  Link_05730                 304.742
  Link_05731                 220.808
  Link_05732                 215.351
  Link_05742                  28.561
  Link_05743                 174.020
  Link_05744                 320.590
  Link_05752                  42.594
  Link_05753                   6.197
  Link_05754                  30.954
  Link_05791                   7.590
  Link_05812                 257.195
  Link_05813                 149.450
  Link_05814                 127.759
  Link_05815                 148.656
  Link_05816                  23.572
  Link_05817                  32.039
  Link_05818                  10.874
  Link_05983                  32.799
  Link_05984                  22.555
  Link_06039                   3.030
  Link_07220                 194.680
  Link_07221                 205.035
  Link_07222                 222.196
  Link_07230                 232.625
  Link_07231                 243.257
  Link_07233                 437.865
  Link_07234                 448.378
  Link_07235                 185.321
  Link_07270                  46.126
  Link_07271                  80.104
  Link_07274                  23.239
  Link_07277                 114.636
  Link_07278                 143.739
  Link_07295                 138.323
  Link_07296                 155.255
  Link_07297                 184.493
  Link_07303                  14.201
  Link_07306                  31.508
  Link_07321                  11.911
  Link_07464                  24.705
  Link_07578                  28.359
  Link_07579                 360.212
  Link_07580                 317.105
  Link_07687                  22.648
  Link_07865                  11.612
  Link_08891                  15.667
  Link_08912                  36.986
  Link1_to_ChengXi          2330.882
  Link2_to_ChengXi           508.941
  Link3_to_ChengXi           459.588
  Link_to_LaoDongLu          309.233
  Pump_ChengXi1              934.026
  Pump_ChengXi2              934.026
  Pump_ChengXi3              934.026
  Pump_ChengXi4              528.250
  Pump_LaoDongLu1            108.614
  Pump_LaoDongLu2            108.614
  Pump_LaoDongLu3              0.000
  outfallpump               2543.841
  

  Analysis begun on:  Sun Sep  5 12:07:34 2021
  Analysis ended on:  Sun Sep  5 12:07:36 2021
  Total elapsed time: 00:00:02