
  EPA STORM WATER MANAGEMENT MODEL - VERSION 5.1 (Build 5.3.0.dev0)
  --------------------------------------------------------------

  WARNING 04: minimum elevation drop used for Conduit Link_01776
  WARNING 04: minimum elevation drop used for Conduit Link_01779
  WARNING 04: minimum elevation drop used for Conduit Link_07234
  WARNING 02: maximum depth increased for Node Node_06087
  
  *********************************************************
  NOTE: The summary statistics displayed in this report are
  based on results found at every computational time step,  
  not just on results from each reporting time step.
  *********************************************************
  
  ****************
  Analysis Options
  ****************
  Flow Units ............... CMS
  Process Models:
    Rainfall/Runoff ........ YES
    RDII ................... NO
    Snowmelt ............... NO
    Groundwater ............ NO
    Flow Routing ........... YES
    Ponding Allowed ........ YES
    Water Quality .......... YES
  Infiltration Method ...... HORTON
  Flow Routing Method ...... DYNWAVE
  Surcharge Method ......... EXTRAN
  Starting Date ............ 01/02/2011 00:00:00
  Ending Date .............. 01/02/2011 06:00:00
  Antecedent Dry Days ...... 0.0
  Report Time Step ......... 00:15:00
  Wet Time Step ............ 00:05:00
  Dry Time Step ............ 01:00:00
  Routing Time Step ........ 60.00 sec
  Variable Time Step ....... YES
  Maximum Trials ........... 8
  Number of Threads ........ 4
  Head Tolerance ........... 0.001500 m
  
  
  **************************        Volume         Depth
  Runoff Quantity Continuity     hectare-m            mm
  **************************     ---------       -------
  Total Precipitation ......         1.645        57.500
  Evaporation Loss .........         0.000         0.000
  Infiltration Loss ........         0.050         1.751
  Surface Runoff ...........         1.596        55.819
  Final Storage ............         0.000         0.009
  Continuity Error (%) .....        -0.138
  
  
  **************************           COD
  Runoff Quality Continuity             kg
  **************************    ----------
  Initial Buildup ..........         0.000
  Surface Buildup ..........         0.000
  Wet Deposition ...........      4325.060
  Sweeping Removal .........         0.000
  Infiltration Loss ........       131.727
  BMP Removal ..............         0.000
  Surface Runoff ...........      4198.608
  Remaining Buildup ........         0.706
  Continuity Error (%) .....        -0.138
  
  
  **************************        Volume        Volume
  Flow Routing Continuity        hectare-m      10^6 ltr
  **************************     ---------     ---------
  Dry Weather Inflow .......         0.153         1.529
  Wet Weather Inflow .......         1.596        15.964
  Groundwater Inflow .......         0.000         0.000
  RDII Inflow ..............         0.000         0.000
  External Inflow ..........         0.000         0.000
<<<<<<< HEAD
  External Outflow .........         0.766         7.663
  Flooding Loss ............         1.097        10.971
  Evaporation Loss .........         0.000         0.000
  Exfiltration Loss ........         0.000         0.000
  Initial Stored Volume ....         0.077         0.773
  Final Stored Volume ......         0.254         2.544
  Continuity Error (%) .....       -15.940
=======
<<<<<<< HEAD
  External Outflow .........         0.735         7.346
  Flooding Loss ............         1.119        11.189
  Evaporation Loss .........         0.000         0.000
  Exfiltration Loss ........         0.000         0.000
  Initial Stored Volume ....         0.077         0.773
  Final Stored Volume ......         0.184         1.840
  Continuity Error (%) .....       -11.543
=======
  External Outflow .........         0.761         7.611
  Flooding Loss ............         1.098        10.984
  Evaporation Loss .........         0.000         0.000
  Exfiltration Loss ........         0.000         0.000
  Initial Stored Volume ....         0.077         0.773
  Final Stored Volume ......         0.244         2.436
  Continuity Error (%) .....       -15.137
>>>>>>> b040755ab93617f94f1ab7a7036927f36e763e5a
>>>>>>> ebd46bdc835ac17077bb70c3b6f6db3a4ee81ecd
  
  
  **************************           COD
  Quality Routing Continuity            kg
  **************************    ----------
  Dry Weather Inflow .......       845.606
  Wet Weather Inflow .......      4198.592
  Groundwater Inflow .......         0.000
  RDII Inflow ..............         0.000
  External Inflow ..........         0.000
<<<<<<< HEAD
  External Outflow .........      1940.358
  Flooding Loss ............      2877.739
  Exfiltration Loss ........         0.000
  Mass Reacted .............         0.000
  Initial Stored Mass ......       427.257
  Final Stored Mass ........       509.552
  Continuity Error (%) .....         2.628
=======
<<<<<<< HEAD
  External Outflow .........      2186.420
  Flooding Loss ............      2971.153
  Exfiltration Loss ........         0.000
  Mass Reacted .............         0.000
  Initial Stored Mass ......       427.257
  Final Stored Mass ........       412.271
  Continuity Error (%) .....        -1.798
=======
  External Outflow .........      1973.324
  Flooding Loss ............      2896.133
  Exfiltration Loss ........         0.000
  Mass Reacted .............         0.000
  Initial Stored Mass ......       427.257
  Final Stored Mass ........       493.175
  Continuity Error (%) .....         1.989
>>>>>>> b040755ab93617f94f1ab7a7036927f36e763e5a
>>>>>>> ebd46bdc835ac17077bb70c3b6f6db3a4ee81ecd
  
  
  *************************
  Highest Continuity Errors
  *************************
<<<<<<< HEAD
  Node Node_04456 (-61.90%)
  Node Node_04713 (-54.16%)
  Node Node_07272 (-53.50%)
  Node Node_04454 (-25.94%)
  Node Node_04715 (-24.86%)
=======
<<<<<<< HEAD
  Node Node_04713 (-96.34%)
  Node Node_07272 (-39.44%)
  Node Node_04714 (-24.22%)
  Node Node_04712 (20.33%)
  Node Node_04711 (-19.06%)
=======
  Node Node_04456 (-79.67%)
  Node Node_04713 (-59.38%)
  Node Node_04454 (-33.29%)
  Node Node_07272 (-32.88%)
  Node Node_04714 (-23.96%)
>>>>>>> b040755ab93617f94f1ab7a7036927f36e763e5a
>>>>>>> ebd46bdc835ac17077bb70c3b6f6db3a4ee81ecd
  
  
  ***************************
  Time-Step Critical Elements
  ***************************
<<<<<<< HEAD
  Link Link_01778 (39.91%)
  Link Link_01292 (21.71%)
  Link Link_02129 (12.80%)
  Link Link_06039 (6.23%)
  Link Link_05464 (4.31%)
=======
<<<<<<< HEAD
  Link Link_02129 (50.12%)
  Link Link_01778 (40.12%)
  Link Link_05464 (2.06%)
  Link Link_01780 (1.20%)
  Link Link_07234 (1.04%)
=======
  Link Link_01778 (40.12%)
  Link Link_01292 (21.97%)
  Link Link_02129 (13.45%)
  Link Link_06039 (5.97%)
  Link Link_05464 (4.42%)
>>>>>>> b040755ab93617f94f1ab7a7036927f36e763e5a
>>>>>>> ebd46bdc835ac17077bb70c3b6f6db3a4ee81ecd
  
  
  ********************************
  Highest Flow Instability Indexes
  ********************************
<<<<<<< HEAD
  Link Link_01558 (82)
  Link Link_01778 (73)
  Link Link_01780 (69)
  Link Link_01781 (68)
  Link Link_01777 (68)
=======
<<<<<<< HEAD
  Link Link_01558 (76)
  Link Link_01778 (72)
  Link Link_01780 (66)
  Link Link_01777 (66)
  Link Link_01787 (66)
=======
  Link Link_01558 (77)
  Link Link_01778 (74)
  Link Link_01777 (69)
  Link Link_01780 (68)
  Link Link_01787 (68)
>>>>>>> b040755ab93617f94f1ab7a7036927f36e763e5a
>>>>>>> ebd46bdc835ac17077bb70c3b6f6db3a4ee81ecd
  
  
  *************************
  Routing Time Step Summary
  *************************
  Minimum Time Step           :     5.00 sec
  Average Time Step           :     5.00 sec
  Maximum Time Step           :     5.00 sec
  Percent in Steady State     :     0.00
<<<<<<< HEAD
  Average Iterations per Step :     6.38
  Percent Not Converging      :    63.10
=======
<<<<<<< HEAD
  Average Iterations per Step :     6.43
  Percent Not Converging      :    65.02
=======
  Average Iterations per Step :     6.38
  Percent Not Converging      :    62.22
>>>>>>> b040755ab93617f94f1ab7a7036927f36e763e5a
>>>>>>> ebd46bdc835ac17077bb70c3b6f6db3a4ee81ecd
  
  
  ***************************
  Subcatchment Runoff Summary
  ***************************
  
  ------------------------------------------------------------------------------------------------------------------------------
                            Total      Total      Total      Total     Imperv       Perv      Total       Total     Peak  Runoff
                           Precip      Runon       Evap      Infil     Runoff     Runoff     Runoff      Runoff   Runoff   Coeff
  Subcatchment                 mm         mm         mm         mm         mm         mm         mm    10^6 ltr      CMS
  ------------------------------------------------------------------------------------------------------------------------------
  2707                      57.50       0.00       0.00       1.76      14.38      41.44      55.82        0.06     0.01   0.971
  2708                      57.50       0.00       0.00       1.76      14.38      41.44      55.82        0.06     0.01   0.971
  2709                      57.50       0.00       0.00       1.76      14.38      41.44      55.82        0.06     0.01   0.971
  2710                      57.50       0.00       0.00       1.76      14.38      41.44      55.82        0.06     0.01   0.971
  2712                      57.50       0.00       0.00       1.76      14.38      41.44      55.82        0.06     0.01   0.971
  2713                      57.50       0.00       0.00       1.76      14.38      41.44      55.82        0.06     0.01   0.971
  2714                      57.50       0.00       0.00       1.76      14.38      41.44      55.82        0.06     0.01   0.971
  2715                      57.50       0.00       0.00       1.76      14.38      41.44      55.82        0.06     0.01   0.971
  2716                      57.50       0.00       0.00       1.76      14.38      41.44      55.82        0.06     0.01   0.971
  2717                      57.50       0.00       0.00       1.76      14.38      41.44      55.82        0.06     0.01   0.971
  2718                      57.50       0.00       0.00       1.76      14.38      41.44      55.82        0.06     0.01   0.971
  2719                      57.50       0.00       0.00       1.76      14.38      41.44      55.82        0.06     0.01   0.971
  2721                      57.50       0.00       0.00       1.76      14.38      41.44      55.82        0.06     0.01   0.971
  2722                      57.50       0.00       0.00       1.76      14.38      41.44      55.82        0.06     0.01   0.971
  2723                      57.50       0.00       0.00       1.76      14.38      41.44      55.82        0.06     0.01   0.971
  2724                      57.50       0.00       0.00       1.76      14.38      41.44      55.82        0.06     0.01   0.971
  2725                      57.50       0.00       0.00       1.76      14.38      41.44      55.82        0.06     0.01   0.971
  2726                      57.50       0.00       0.00       1.76      14.38      41.44      55.82        0.06     0.01   0.971
  2727                      57.50       0.00       0.00       1.76      14.38      41.44      55.82        0.06     0.01   0.971
  2728                      57.50       0.00       0.00       1.76      14.38      41.44      55.82        0.06     0.01   0.971
  2729                      57.50       0.00       0.00       1.76      14.38      41.44      55.82        0.06     0.01   0.971
  2730                      57.50       0.00       0.00       1.76      14.38      41.44      55.82        0.06     0.01   0.971
  2731                      57.50       0.00       0.00       1.76      14.38      41.44      55.82        0.06     0.01   0.971
  2732                      57.50       0.00       0.00       1.76      14.38      41.44      55.82        0.06     0.01   0.971
  2733                      57.50       0.00       0.00       1.76      14.38      41.44      55.82        0.06     0.01   0.971
  2734                      57.50       0.00       0.00       1.76      14.38      41.44      55.82        0.06     0.01   0.971
  2735                      57.50       0.00       0.00       1.76      14.38      41.44      55.82        0.06     0.01   0.971
  2736                      57.50       0.00       0.00       1.76      14.38      41.44      55.82        0.06     0.01   0.971
  2737                      57.50       0.00       0.00       1.76      14.38      41.44      55.82        0.06     0.01   0.971
  2738                      57.50       0.00       0.00       1.76      14.38      41.44      55.82        0.06     0.01   0.971
  2739                      57.50       0.00       0.00       1.76      14.38      41.44      55.82        0.06     0.01   0.971
  2740                      57.50       0.00       0.00       1.76      14.38      41.44      55.82        0.06     0.01   0.971
  2741                      57.50       0.00       0.00       1.76      14.38      41.44      55.82        0.06     0.01   0.971
  2742                      57.50       0.00       0.00       1.76      14.38      41.44      55.82        0.06     0.01   0.971
  2743                      57.50       0.00       0.00       1.76      14.38      41.44      55.82        0.06     0.01   0.971
  2744                      57.50       0.00       0.00       1.76      14.38      41.44      55.82        0.06     0.01   0.971
  2745                      57.50       0.00       0.00       1.76      14.38      41.44      55.82        0.06     0.01   0.971
  2746                      57.50       0.00       0.00       1.76      14.38      41.44      55.82        0.06     0.01   0.971
  2747                      57.50       0.00       0.00       1.76      14.38      41.44      55.82        0.06     0.01   0.971
  2748                      57.50       0.00       0.00       1.76      14.38      41.44      55.82        0.06     0.01   0.971
  2749                      57.50       0.00       0.00       1.76      14.38      41.44      55.82        0.06     0.01   0.971
  2750                      57.50       0.00       0.00       1.76      14.38      41.44      55.82        0.06     0.01   0.971
  2751                      57.50       0.00       0.00       1.76      14.38      41.44      55.82        0.06     0.01   0.971
  2752                      57.50       0.00       0.00       1.76      14.38      41.44      55.82        0.06     0.01   0.971
  2753                      57.50       0.00       0.00       1.76      14.38      41.44      55.82        0.06     0.01   0.971
  2754                      57.50       0.00       0.00       1.76      14.38      41.44      55.82        0.06     0.01   0.971
  2755                      57.50       0.00       0.00       1.76      14.38      41.44      55.82        0.06     0.01   0.971
  2756                      57.50       0.00       0.00       1.76      14.38      41.44      55.82        0.06     0.01   0.971
  2964                      57.50       0.00       0.00       1.76      14.38      41.44      55.82        0.06     0.01   0.971
  2969                      57.50       0.00       0.00       1.76      14.38      41.44      55.82        0.06     0.01   0.971
  2970                      57.50       0.00       0.00       1.76      14.38      41.44      55.82        0.06     0.01   0.971
  2974                      57.50       0.00       0.00       1.76      14.38      41.44      55.82        0.06     0.01   0.971
  2975                      57.50       0.00       0.00       1.76      14.38      41.44      55.82        0.06     0.01   0.971
  2976                      57.50       0.00       0.00       1.76      14.38      41.44      55.82        0.06     0.01   0.971
  2977                      57.50       0.00       0.00       1.76      14.38      41.44      55.82        0.06     0.01   0.971
  2978                      57.50       0.00       0.00       1.76      14.38      41.44      55.82        0.06     0.01   0.971
  2979                      57.50       0.00       0.00       1.76      14.38      41.44      55.82        0.06     0.01   0.971
  2980                      57.50       0.00       0.00       1.76      14.38      41.44      55.82        0.06     0.01   0.971
  2981                      57.50       0.00       0.00       1.76      14.38      41.44      55.82        0.06     0.01   0.971
  2982                      57.50       0.00       0.00       1.76      14.38      41.44      55.82        0.06     0.01   0.971
  2984                      57.50       0.00       0.00       1.76      14.38      41.44      55.82        0.06     0.01   0.971
  2985                      57.50       0.00       0.00       1.76      14.38      41.44      55.82        0.06     0.01   0.971
  3925                      57.50       0.00       0.00       1.76      14.38      41.44      55.82        0.06     0.01   0.971
  3926                      57.50       0.00       0.00       1.76      14.38      41.44      55.82        0.06     0.01   0.971
  3927                      57.50       0.00       0.00       1.76      14.38      41.44      55.82        0.06     0.01   0.971
  3928                      57.50       0.00       0.00       1.76      14.38      41.44      55.82        0.06     0.01   0.971
  3929                      57.50       0.00       0.00       1.76      14.38      41.44      55.82        0.06     0.01   0.971
  3930                      57.50       0.00       0.00       1.76      14.38      41.44      55.82        0.06     0.01   0.971
  3931                      57.50       0.00       0.00       1.76      14.38      41.44      55.82        0.06     0.01   0.971
  3932                      57.50       0.00       0.00       1.76      14.38      41.44      55.82        0.06     0.01   0.971
  3933                      57.50       0.00       0.00       1.76      14.38      41.44      55.82        0.06     0.01   0.971
  3934                      57.50       0.00       0.00       1.76      14.38      41.44      55.82        0.06     0.01   0.971
  3935                      57.50       0.00       0.00       1.76      14.38      41.44      55.82        0.06     0.01   0.971
  3936                      57.50       0.00       0.00       1.76      14.38      41.44      55.82        0.06     0.01   0.971
  3937                      57.50       0.00       0.00       1.76      14.38      41.44      55.82        0.06     0.01   0.971
  3938                      57.50       0.00       0.00       1.76      14.38      41.44      55.82        0.06     0.01   0.971
  3939                      57.50       0.00       0.00       1.76      14.38      41.44      55.82        0.06     0.01   0.971
  3940                      57.50       0.00       0.00       1.76      14.38      41.44      55.82        0.06     0.01   0.971
  3941                      57.50       0.00       0.00       1.76      14.38      41.44      55.82        0.06     0.01   0.971
  3942                      57.50       0.00       0.00       1.76      14.38      41.44      55.82        0.06     0.01   0.971
  3943                      57.50       0.00       0.00       1.76      14.38      41.44      55.82        0.06     0.01   0.971
  3944                      57.50       0.00       0.00       1.76      14.38      41.44      55.82        0.06     0.01   0.971
  3945                      57.50       0.00       0.00       1.76      14.38      41.44      55.82        0.06     0.01   0.971
  3946                      57.50       0.00       0.00       1.76      14.38      41.44      55.82        0.06     0.01   0.971
  3947                      57.50       0.00       0.00       1.76      14.38      41.44      55.82        0.06     0.01   0.971
  3948                      57.50       0.00       0.00       1.76      14.38      41.44      55.82        0.06     0.01   0.971
  3949                      57.50       0.00       0.00       1.76      14.38      41.44      55.82        0.06     0.01   0.971
  3950                      57.50       0.00       0.00       1.76      14.38      41.44      55.82        0.06     0.01   0.971
  3951                      57.50       0.00       0.00       1.76      14.38      41.44      55.82        0.06     0.01   0.971
  3952                      57.50       0.00       0.00       1.76      14.38      41.44      55.82        0.06     0.01   0.971
  3953                      57.50       0.00       0.00       1.76      14.38      41.44      55.82        0.06     0.01   0.971
  3954                      57.50       0.00       0.00       1.76      14.38      41.44      55.82        0.06     0.01   0.971
  3955                      57.50       0.00       0.00       1.76      14.38      41.44      55.82        0.06     0.01   0.971
  3956                      57.50       0.00       0.00       1.76      14.38      41.44      55.82        0.06     0.01   0.971
  4032                      57.50       0.00       0.00       1.76      14.38      41.44      55.82        0.06     0.01   0.971
  4033                      57.50       0.00       0.00       1.76      14.38      41.44      55.82        0.06     0.01   0.971
  4041                      57.50       0.00       0.00       1.76      14.38      41.44      55.82        0.06     0.01   0.971
  4051                      57.50       0.00       0.00       1.76      14.38      41.44      55.82        0.06     0.01   0.971
  4055                      57.50       0.00       0.00       1.76      14.38      41.44      55.82        0.06     0.01   0.971
  4056                      57.50       0.00       0.00       1.76      14.38      41.44      55.82        0.06     0.01   0.971
  4058                      57.50       0.00       0.00       1.76      14.38      41.44      55.82        0.06     0.01   0.971
  4385                      57.50       0.00       0.00       1.76      14.38      41.44      55.82        0.06     0.01   0.971
  4386                      57.50       0.00       0.00       1.76      14.38      41.44      55.82        0.06     0.01   0.971
  4387                      57.50       0.00       0.00       1.76      14.38      41.44      55.82        0.06     0.01   0.971
  4388                      57.50       0.00       0.00       1.76      14.38      41.44      55.82        0.06     0.01   0.971
  4389                      57.50       0.00       0.00       1.76      14.38      41.44      55.82        0.06     0.01   0.971
  4390                      57.50       0.00       0.00       1.76      14.38      41.44      55.82        0.06     0.01   0.971
  4391                      57.50       0.00       0.00       1.76      14.38      41.44      55.82        0.06     0.01   0.971
  4392                      57.50       0.00       0.00       1.76      14.38      41.44      55.82        0.06     0.01   0.971
  4393                      57.50       0.00       0.00       1.76      14.38      41.44      55.82        0.06     0.01   0.971
  4394                      57.50       0.00       0.00       1.76      14.38      41.44      55.82        0.06     0.01   0.971
  4395                      57.50       0.00       0.00       1.76      14.38      41.44      55.82        0.06     0.01   0.971
  4396                      57.50       0.00       0.00       1.76      14.38      41.44      55.82        0.06     0.01   0.971
  4397                      57.50       0.00       0.00       1.76      14.38      41.44      55.82        0.06     0.01   0.971
  4398                      57.50       0.00       0.00       1.76      14.38      41.44      55.82        0.06     0.01   0.971
  4429                      57.50       0.00       0.00       1.76      14.38      41.44      55.82        0.06     0.01   0.971
  4430                      57.50       0.00       0.00       1.76      14.38      41.44      55.82        0.06     0.01   0.971
  4431                      57.50       0.00       0.00       1.76      14.38      41.44      55.82        0.06     0.01   0.971
  4432                      57.50       0.00       0.00       1.76      14.38      41.44      55.82        0.06     0.01   0.971
  4433                      57.50       0.00       0.00       1.76      14.38      41.44      55.82        0.06     0.01   0.971
  4434                      57.50       0.00       0.00       1.76      14.38      41.44      55.82        0.06     0.01   0.971
  4435                      57.50       0.00       0.00       1.76      14.38      41.44      55.82        0.06     0.01   0.971
  4436                      57.50       0.00       0.00       1.76      14.38      41.44      55.82        0.06     0.01   0.971
  4437                      57.50       0.00       0.00       1.76      14.38      41.44      55.82        0.06     0.01   0.971
  4438                      57.50       0.00       0.00       1.76      14.38      41.44      55.82        0.06     0.01   0.971
  4439                      57.50       0.00       0.00       1.76      14.38      41.44      55.82        0.06     0.01   0.971
  4440                      57.50       0.00       0.00       1.76      14.38      41.44      55.82        0.06     0.01   0.971
  4441                      57.50       0.00       0.00       1.76      14.38      41.44      55.82        0.06     0.01   0.971
  4442                      57.50       0.00       0.00       1.76      14.38      41.44      55.82        0.06     0.01   0.971
  4443                      57.50       0.00       0.00       1.76      14.38      41.44      55.82        0.06     0.01   0.971
  4444                      57.50       0.00       0.00       1.76      14.38      41.44      55.82        0.06     0.01   0.971
  4445                      57.50       0.00       0.00       1.76      14.38      41.44      55.82        0.06     0.01   0.971
  4446                      57.50       0.00       0.00       1.76      14.38      41.44      55.82        0.06     0.01   0.971
  4447                      57.50       0.00       0.00       1.76      14.38      41.44      55.82        0.06     0.01   0.971
  4448                      57.50       0.00       0.00       1.76      14.38      41.44      55.82        0.06     0.01   0.971
  4449                      57.50       0.00       0.00       1.76      14.38      41.44      55.82        0.06     0.01   0.971
  4450                      57.50       0.00       0.00       1.76      14.38      41.44      55.82        0.06     0.01   0.971
  4451                      57.50       0.00       0.00       1.76      14.38      41.44      55.82        0.06     0.01   0.971
  4452                      57.50       0.00       0.00       1.76      14.38      41.44      55.82        0.06     0.01   0.971
  4453                      57.50       0.00       0.00       1.76      14.38      41.44      55.82        0.06     0.01   0.971
  4454                      57.50       0.00       0.00       1.76      14.38      41.44      55.82        0.06     0.01   0.971
  4462                      57.50       0.00       0.00       1.76      14.38      41.44      55.82        0.06     0.01   0.971
  4463                      57.50       0.00       0.00       1.76      14.38      41.44      55.82        0.06     0.01   0.971
  4563                      57.50       0.00       0.00       1.76      14.38      41.44      55.82        0.06     0.01   0.971
  4564                      57.50       0.00       0.00       1.76      14.38      41.44      55.82        0.06     0.01   0.971
  4565                      57.50       0.00       0.00       1.76      14.38      41.44      55.82        0.06     0.01   0.971
  4566                      57.50       0.00       0.00       1.76      14.38      41.44      55.82        0.06     0.01   0.971
  4567                      57.50       0.00       0.00       1.76      14.38      41.44      55.82        0.06     0.01   0.971
  4568                      57.50       0.00       0.00       1.76      14.38      41.44      55.82        0.06     0.01   0.971
  4569                      57.50       0.00       0.00       1.76      14.38      41.44      55.82        0.06     0.01   0.971
  4570                      57.50       0.00       0.00       1.76      14.38      41.44      55.82        0.06     0.01   0.971
  4571                      57.50       0.00       0.00       1.76      14.38      41.44      55.82        0.06     0.01   0.971
  4572                      57.50       0.00       0.00       1.76      14.38      41.44      55.82        0.06     0.01   0.971
  4573                      57.50       0.00       0.00       1.76      14.38      41.44      55.82        0.06     0.01   0.971
  4574                      57.50       0.00       0.00       1.76      14.38      41.44      55.82        0.06     0.01   0.971
  4575                      57.50       0.00       0.00       1.76      14.38      41.44      55.82        0.06     0.01   0.971
  4576                      57.50       0.00       0.00       1.76      14.38      41.44      55.82        0.06     0.01   0.971
  4577                      57.50       0.00       0.00       1.76      14.38      41.44      55.82        0.06     0.01   0.971
  4578                      57.50       0.00       0.00       1.76      14.38      41.44      55.82        0.06     0.01   0.971
  4579                      57.50       0.00       0.00       1.76      14.38      41.44      55.82        0.06     0.01   0.971
  4580                      57.50       0.00       0.00       1.76      14.38      41.44      55.82        0.06     0.01   0.971
  4581                      57.50       0.00       0.00       1.76      14.38      41.44      55.82        0.06     0.01   0.971
  4624                      57.50       0.00       0.00       1.76      14.38      41.44      55.82        0.06     0.01   0.971
  4625                      57.50       0.00       0.00       1.76      14.38      41.44      55.82        0.06     0.01   0.971
  4644                      57.50       0.00       0.00       1.76      14.38      41.44      55.82        0.06     0.01   0.971
  4645                      57.50       0.00       0.00       1.76      14.38      41.44      55.82        0.06     0.01   0.971
  4646                      57.50       0.00       0.00       1.76      14.38      41.44      55.82        0.06     0.01   0.971
  4679                      57.50       0.00       0.00       1.76      14.38      41.44      55.82        0.06     0.01   0.971
  4680                      57.50       0.00       0.00       1.76      14.38      41.44      55.82        0.06     0.01   0.971
  4681                      57.50       0.00       0.00       1.76      14.38      41.44      55.82        0.06     0.01   0.971
  4682                      57.50       0.00       0.00       1.76      14.38      41.44      55.82        0.06     0.01   0.971
  4683                      57.50       0.00       0.00       1.76      14.38      41.44      55.82        0.06     0.01   0.971
  4711                      57.50       0.00       0.00       1.76      14.38      41.44      55.82        0.06     0.01   0.971
  4712                      57.50       0.00       0.00       1.76      14.38      41.44      55.82        0.06     0.01   0.971
  4713                      57.50       0.00       0.00       1.76      14.38      41.44      55.82        0.06     0.01   0.971
  4714                      57.50       0.00       0.00       1.76      14.38      41.44      55.82        0.06     0.01   0.971
  4715                      57.50       0.00       0.00       1.76      14.38      41.44      55.82        0.06     0.01   0.971
  4716                      57.50       0.00       0.00       1.76      14.38      41.44      55.82        0.06     0.01   0.971
  4717                      57.50       0.00       0.00       1.76      14.38      41.44      55.82        0.06     0.01   0.971
  4718                      57.50       0.00       0.00       1.76      14.38      41.44      55.82        0.06     0.01   0.971
  4722                      57.50       0.00       0.00       1.76      14.38      41.44      55.82        0.06     0.01   0.971
  4760                      57.50       0.00       0.00       1.76      14.38      41.44      55.82        0.06     0.01   0.971
  4761                      57.50       0.00       0.00       1.76      14.38      41.44      55.82        0.06     0.01   0.971
  4765                      57.50       0.00       0.00       1.76      14.38      41.44      55.82        0.06     0.01   0.971
  4766                      57.50       0.00       0.00       1.76      14.38      41.44      55.82        0.06     0.01   0.971
  4767                      57.50       0.00       0.00       1.76      14.38      41.44      55.82        0.06     0.01   0.971
  4768                      57.50       0.00       0.00       1.76      14.38      41.44      55.82        0.06     0.01   0.971
  4769                      57.50       0.00       0.00       1.76      14.38      41.44      55.82        0.06     0.01   0.971
  4855                      57.50       0.00       0.00       1.76      14.38      41.44      55.82        0.06     0.01   0.971
  4856                      57.50       0.00       0.00       1.76      14.38      41.44      55.82        0.06     0.01   0.971
  5284                      57.50       0.00       0.00       1.76      14.38      41.44      55.82        0.06     0.01   0.971
  5285                      57.50       0.00       0.00       1.76      14.38      41.44      55.82        0.06     0.01   0.971
  5286                      57.50       0.00       0.00       1.76      14.38      41.44      55.82        0.06     0.01   0.971
  5287                      57.50       0.00       0.00       1.76      14.38      41.44      55.82        0.06     0.01   0.971
  5288                      57.50       0.00       0.00       1.76      14.38      41.44      55.82        0.06     0.01   0.971
  5289                      57.50       0.00       0.00       1.76      14.38      41.44      55.82        0.06     0.01   0.971
  5290                      57.50       0.00       0.00       1.76      14.38      41.44      55.82        0.06     0.01   0.971
  5291                      57.50       0.00       0.00       1.76      14.38      41.44      55.82        0.06     0.01   0.971
  5292                      57.50       0.00       0.00       1.76      14.38      41.44      55.82        0.06     0.01   0.971
  5293                      57.50       0.00       0.00       1.76      14.38      41.44      55.82        0.06     0.01   0.971
  5294                      57.50       0.00       0.00       1.76      14.38      41.44      55.82        0.06     0.01   0.971
  5295                      57.50       0.00       0.00       1.76      14.38      41.44      55.82        0.06     0.01   0.971
  5296                      57.50       0.00       0.00       1.76      14.38      41.44      55.82        0.06     0.01   0.971
  5297                      57.50       0.00       0.00       1.76      14.38      41.44      55.82        0.06     0.01   0.971
  5298                      57.50       0.00       0.00       1.76      14.38      41.44      55.82        0.06     0.01   0.971
  5299                      57.50       0.00       0.00       1.76      14.38      41.44      55.82        0.06     0.01   0.971
  5300                      57.50       0.00       0.00       1.76      14.38      41.44      55.82        0.06     0.01   0.971
  5301                      57.50       0.00       0.00       1.76      14.38      41.44      55.82        0.06     0.01   0.971
  5302                      57.50       0.00       0.00       1.76      14.38      41.44      55.82        0.06     0.01   0.971
  5303                      57.50       0.00       0.00       1.76      14.38      41.44      55.82        0.06     0.01   0.971
  5304                      57.50       0.00       0.00       1.76      14.38      41.44      55.82        0.06     0.01   0.971
  5305                      57.50       0.00       0.00       1.76      14.38      41.44      55.82        0.06     0.01   0.971
  5306                      57.50       0.00       0.00       1.76      14.38      41.44      55.82        0.06     0.01   0.971
  5307                      57.50       0.00       0.00       1.76      14.38      41.44      55.82        0.06     0.01   0.971
  5308                      57.50       0.00       0.00       1.76      14.38      41.44      55.82        0.06     0.01   0.971
  5309                      57.50       0.00       0.00       1.76      14.38      41.44      55.82        0.06     0.01   0.971
  5310                      57.50       0.00       0.00       1.76      14.38      41.44      55.82        0.06     0.01   0.971
  5311                      57.50       0.00       0.00       1.76      14.38      41.44      55.82        0.06     0.01   0.971
  5312                      57.50       0.00       0.00       1.76      14.38      41.44      55.82        0.06     0.01   0.971
  5313                      57.50       0.00       0.00       1.76      14.38      41.44      55.82        0.06     0.01   0.971
  5314                      57.50       0.00       0.00       1.76      14.38      41.44      55.82        0.06     0.01   0.971
  5315                      57.50       0.00       0.00       1.76      14.38      41.44      55.82        0.06     0.01   0.971
  5316                      57.50       0.00       0.00       1.76      14.38      41.44      55.82        0.06     0.01   0.971
  5317                      57.50       0.00       0.00       1.76      14.38      41.44      55.82        0.06     0.01   0.971
  5318                      57.50       0.00       0.00       1.76      14.38      41.44      55.82        0.06     0.01   0.971
  5319                      57.50       0.00       0.00       1.76      14.38      41.44      55.82        0.06     0.01   0.971
  5320                      57.50       0.00       0.00       1.76      14.38      41.44      55.82        0.06     0.01   0.971
  5321                      57.50       0.00       0.00       1.76      14.38      41.44      55.82        0.06     0.01   0.971
  5322                      57.50       0.00       0.00       1.76      14.38      41.44      55.82        0.06     0.01   0.971
  5323                      57.50       0.00       0.00       1.76      14.38      41.44      55.82        0.06     0.01   0.971
  5324                      57.50       0.00       0.00       1.76      14.38      41.44      55.82        0.06     0.01   0.971
  5325                      57.50       0.00       0.00       1.76      14.38      41.44      55.82        0.06     0.01   0.971
  5326                      57.50       0.00       0.00       1.76      14.38      41.44      55.82        0.06     0.01   0.971
  5327                      57.50       0.00       0.00       1.76      14.38      41.44      55.82        0.06     0.01   0.971
  5328                      57.50       0.00       0.00       1.76      14.38      41.44      55.82        0.06     0.01   0.971
  5329                      57.50       0.00       0.00       1.76      14.38      41.44      55.82        0.06     0.01   0.971
  5330                      57.50       0.00       0.00       1.76      14.38      41.44      55.82        0.06     0.01   0.971
  5333                      57.50       0.00       0.00       1.76      14.38      41.44      55.82        0.06     0.01   0.971
  5334                      57.50       0.00       0.00       1.76      14.38      41.44      55.82        0.06     0.01   0.971
  6040                      57.50       0.00       0.00       1.76      14.38      41.44      55.82        0.06     0.01   0.971
  6041                      57.50       0.00       0.00       1.76      14.38      41.44      55.82        0.06     0.01   0.971
  6162                      57.50       0.00       0.00       1.76      14.38      41.44      55.82        0.06     0.01   0.971
  7207                      57.50       0.00       0.00       1.76      14.38      41.44      55.82        0.06     0.01   0.971
  7208                      57.50       0.00       0.00       1.76      14.38      41.44      55.82        0.06     0.01   0.971
  7213                      57.50       0.00       0.00       1.76      14.38      41.44      55.82        0.06     0.01   0.971
  7214                      57.50       0.00       0.00       1.76      14.38      41.44      55.82        0.06     0.01   0.971
  7219                      57.50       0.00       0.00       1.76      14.38      41.44      55.82        0.06     0.01   0.971
  7220                      57.50       0.00       0.00       1.76      14.38      41.44      55.82        0.06     0.01   0.971
  7221                      57.50       0.00       0.00       1.76      14.38      41.44      55.82        0.06     0.01   0.971
  7225                      57.50       0.00       0.00       1.76      14.38      41.44      55.82        0.06     0.01   0.971
  7229                      57.50       0.00       0.00       1.76      14.38      41.44      55.82        0.06     0.01   0.971
  7231                      57.50       0.00       0.00       1.76      14.38      41.44      55.82        0.06     0.01   0.971
  7268                      57.50       0.00       0.00       1.76      14.38      41.44      55.82        0.06     0.01   0.971
  7269                      57.50       0.00       0.00       1.76      14.38      41.44      55.82        0.06     0.01   0.971
  7271                      57.50       0.00       0.00       1.76      14.38      41.44      55.82        0.06     0.01   0.971
  7272                      57.50       0.00       0.00       1.76      14.38      41.44      55.82        0.06     0.01   0.971
  7273                      57.50       0.00       0.00       1.76      14.38      41.44      55.82        0.06     0.01   0.971
  7433                      57.50       0.00       0.00       1.76      14.38      41.44      55.82        0.06     0.01   0.971
  7434                      57.50       0.00       0.00       1.76      14.38      41.44      55.82        0.06     0.01   0.971
  7544                      57.50       0.00       0.00       1.76      14.38      41.44      55.82        0.06     0.01   0.971
  7545                      57.50       0.00       0.00       1.76      14.38      41.44      55.82        0.06     0.01   0.971
  8737                      57.50       0.00       0.00       1.76      14.38      41.44      55.82        0.06     0.01   0.971
  8818                      57.50       0.00       0.00       1.76      14.38      41.44      55.82        0.06     0.01   0.971
  9942                      57.50       0.00       0.00       1.76      14.38      41.44      55.82        0.06     0.01   0.971
  9957                      57.50       0.00       0.00       1.76      14.38      41.44      55.82        0.06     0.01   0.971
  4399                      57.50       0.00       0.00       1.69      14.37      41.49      55.86        0.02     0.00   0.972
  4400                      57.50       0.00       0.00       1.69      14.37      41.49      55.86        0.02     0.00   0.972
  4401                      57.50       0.00       0.00       1.69      14.37      41.49      55.86        0.02     0.00   0.972
  4402                      57.50       0.00       0.00       1.69      14.37      41.49      55.86        0.02     0.00   0.972
  4403                      57.50       0.00       0.00       1.69      14.37      41.49      55.86        0.02     0.00   0.972
  4404                      57.50       0.00       0.00       1.69      14.37      41.49      55.86        0.02     0.00   0.972
  4405                      57.50       0.00       0.00       1.69      14.37      41.49      55.86        0.02     0.00   0.972
  4406                      57.50       0.00       0.00       1.69      14.37      41.49      55.86        0.02     0.00   0.972
  4407                      57.50       0.00       0.00       1.69      14.37      41.49      55.86        0.02     0.00   0.972
  4408                      57.50       0.00       0.00       1.69      14.37      41.49      55.86        0.02     0.00   0.972
  4409                      57.50       0.00       0.00       1.69      14.37      41.49      55.86        0.02     0.00   0.972
  4410                      57.50       0.00       0.00       1.69      14.37      41.49      55.86        0.02     0.00   0.972
  4411                      57.50       0.00       0.00       1.69      14.37      41.49      55.86        0.02     0.00   0.972
  4412                      57.50       0.00       0.00       1.69      14.37      41.49      55.86        0.02     0.00   0.972
  4423                      57.50       0.00       0.00       1.69      14.37      41.49      55.86        0.02     0.00   0.972
  4424                      57.50       0.00       0.00       1.69      14.37      41.49      55.86        0.02     0.00   0.972
  4425                      57.50       0.00       0.00       1.69      14.37      41.49      55.86        0.02     0.00   0.972
  4426                      57.50       0.00       0.00       1.69      14.37      41.49      55.86        0.02     0.00   0.972
  4427                      57.50       0.00       0.00       1.69      14.37      41.49      55.86        0.02     0.00   0.972
  4428                      57.50       0.00       0.00       1.69      14.37      41.49      55.86        0.02     0.00   0.972
  4455                      57.50       0.00       0.00       1.69      14.37      41.49      55.86        0.02     0.00   0.972
  4456                      57.50       0.00       0.00       1.69      14.37      41.49      55.86        0.02     0.00   0.972
  4457                      57.50       0.00       0.00       1.69      14.37      41.49      55.86        0.02     0.00   0.972
  4458                      57.50       0.00       0.00       1.69      14.37      41.49      55.86        0.02     0.00   0.972
  4459                      57.50       0.00       0.00       1.69      14.37      41.49      55.86        0.02     0.00   0.972
  4460                      57.50       0.00       0.00       1.69      14.37      41.49      55.86        0.02     0.00   0.972
  4461                      57.50       0.00       0.00       1.69      14.37      41.49      55.86        0.02     0.00   0.972
  4464                      57.50       0.00       0.00       1.69      14.37      41.49      55.86        0.02     0.00   0.972
  4465                      57.50       0.00       0.00       1.69      14.37      41.49      55.86        0.02     0.00   0.972
  4466                      57.50       0.00       0.00       1.69      14.37      41.49      55.86        0.02     0.00   0.972
  4467                      57.50       0.00       0.00       1.69      14.37      41.49      55.86        0.02     0.00   0.972
  4468                      57.50       0.00       0.00       1.69      14.37      41.49      55.86        0.02     0.00   0.972
  4469                      57.50       0.00       0.00       1.69      14.37      41.49      55.86        0.02     0.00   0.972
  4470                      57.50       0.00       0.00       1.69      14.37      41.49      55.86        0.02     0.00   0.972
  4471                      57.50       0.00       0.00       1.69      14.37      41.49      55.86        0.02     0.00   0.972
  4472                      57.50       0.00       0.00       1.69      14.37      41.49      55.86        0.02     0.00   0.972
  4473                      57.50       0.00       0.00       1.69      14.37      41.49      55.86        0.02     0.00   0.972
  4474                      57.50       0.00       0.00       1.69      14.37      41.49      55.86        0.02     0.00   0.972
  4628                      57.50       0.00       0.00       1.69      14.37      41.49      55.86        0.02     0.00   0.972
  4631                      57.50       0.00       0.00       1.69      14.37      41.49      55.86        0.02     0.00   0.972
  4632                      57.50       0.00       0.00       1.69      14.37      41.49      55.86        0.02     0.00   0.972
  4633                      57.50       0.00       0.00       1.69      14.37      41.49      55.86        0.02     0.00   0.972
  4634                      57.50       0.00       0.00       1.69      14.37      41.49      55.86        0.02     0.00   0.972
  4637                      57.50       0.00       0.00       1.69      14.37      41.49      55.86        0.02     0.00   0.972
  4686                      57.50       0.00       0.00       1.69      14.37      41.49      55.86        0.02     0.00   0.972
  4687                      57.50       0.00       0.00       1.69      14.37      41.49      55.86        0.02     0.00   0.972
  4688                      57.50       0.00       0.00       1.69      14.37      41.49      55.86        0.02     0.00   0.972
  5032                      57.50       0.00       0.00       1.69      14.37      41.49      55.86        0.02     0.00   0.972
  5331                      57.50       0.00       0.00       1.69      14.37      41.49      55.86        0.02     0.00   0.972
  5332                      57.50       0.00       0.00       1.69      14.37      41.49      55.86        0.02     0.00   0.972
  5335                      57.50       0.00       0.00       1.69      14.37      41.49      55.86        0.02     0.00   0.972
  5336                      57.50       0.00       0.00       1.69      14.37      41.49      55.86        0.02     0.00   0.972
  5337                      57.50       0.00       0.00       1.69      14.37      41.49      55.86        0.02     0.00   0.972
  5338                      57.50       0.00       0.00       1.69      14.37      41.49      55.86        0.02     0.00   0.972
  5339                      57.50       0.00       0.00       1.69      14.37      41.49      55.86        0.02     0.00   0.972
  5340                      57.50       0.00       0.00       1.69      14.37      41.49      55.86        0.02     0.00   0.972
  5341                      57.50       0.00       0.00       1.69      14.37      41.49      55.86        0.02     0.00   0.972
  5342                      57.50       0.00       0.00       1.69      14.37      41.49      55.86        0.02     0.00   0.972
  5343                      57.50       0.00       0.00       1.69      14.37      41.49      55.86        0.02     0.00   0.972
  5344                      57.50       0.00       0.00       1.69      14.37      41.49      55.86        0.02     0.00   0.972
  5345                      57.50       0.00       0.00       1.69      14.37      41.49      55.86        0.02     0.00   0.972
  5346                      57.50       0.00       0.00       1.69      14.37      41.49      55.86        0.02     0.00   0.972
  5347                      57.50       0.00       0.00       1.69      14.37      41.49      55.86        0.02     0.00   0.972
  5348                      57.50       0.00       0.00       1.69      14.37      41.49      55.86        0.02     0.00   0.972
  5349                      57.50       0.00       0.00       1.69      14.37      41.49      55.86        0.02     0.00   0.972
  5350                      57.50       0.00       0.00       1.69      14.37      41.49      55.86        0.02     0.00   0.972
  6088                      57.50       0.00       0.00       1.69      14.37      41.49      55.86        0.02     0.00   0.972
  7275                      57.50       0.00       0.00       1.69      14.37      41.49      55.86        0.02     0.00   0.972
  9955                      57.50       0.00       0.00       1.69      14.37      41.49      55.86        0.02     0.00   0.972
  9956                      57.50       0.00       0.00       1.69      14.37      41.49      55.86        0.02     0.00   0.972
  
  
  ****************************
  Subcatchment Washoff Summary
  ****************************
  
  ----------------------------------
                                 COD
  Subcatchment                    kg
  ----------------------------------
  2707                        14.680
  2708                        14.680
  2709                        14.680
  2710                        14.680
  2712                        14.680
  2713                        14.680
  2714                        14.680
  2715                        14.680
  2716                        14.680
  2717                        14.680
  2718                        14.680
  2719                        14.680
  2721                        14.680
  2722                        14.680
  2723                        14.680
  2724                        14.680
  2725                        14.680
  2726                        14.680
  2727                        14.680
  2728                        14.680
  2729                        14.680
  2730                        14.680
  2731                        14.680
  2732                        14.680
  2733                        14.680
  2734                        14.680
  2735                        14.680
  2736                        14.680
  2737                        14.680
  2738                        14.680
  2739                        14.680
  2740                        14.680
  2741                        14.680
  2742                        14.680
  2743                        14.680
  2744                        14.680
  2745                        14.680
  2746                        14.680
  2747                        14.680
  2748                        14.680
  2749                        14.680
  2750                        14.680
  2751                        14.680
  2752                        14.680
  2753                        14.680
  2754                        14.680
  2755                        14.680
  2756                        14.680
  2964                        14.680
  2969                        14.680
  2970                        14.680
  2974                        14.680
  2975                        14.680
  2976                        14.680
  2977                        14.680
  2978                        14.680
  2979                        14.680
  2980                        14.680
  2981                        14.680
  2982                        14.680
  2984                        14.680
  2985                        14.680
  3925                        14.680
  3926                        14.680
  3927                        14.680
  3928                        14.680
  3929                        14.680
  3930                        14.680
  3931                        14.680
  3932                        14.680
  3933                        14.680
  3934                        14.680
  3935                        14.680
  3936                        14.680
  3937                        14.680
  3938                        14.680
  3939                        14.680
  3940                        14.680
  3941                        14.680
  3942                        14.680
  3943                        14.680
  3944                        14.680
  3945                        14.680
  3946                        14.680
  3947                        14.680
  3948                        14.680
  3949                        14.680
  3950                        14.680
  3951                        14.680
  3952                        14.680
  3953                        14.680
  3954                        14.680
  3955                        14.680
  3956                        14.680
  4032                        14.680
  4033                        14.680
  4041                        14.680
  4051                        14.680
  4055                        14.680
  4056                        14.680
  4058                        14.680
  4385                        14.680
  4386                        14.680
  4387                        14.680
  4388                        14.680
  4389                        14.680
  4390                        14.680
  4391                        14.680
  4392                        14.680
  4393                        14.680
  4394                        14.680
  4395                        14.680
  4396                        14.680
  4397                        14.680
  4398                        14.680
  4429                        14.680
  4430                        14.680
  4431                        14.680
  4432                        14.680
  4433                        14.680
  4434                        14.680
  4435                        14.680
  4436                        14.680
  4437                        14.680
  4438                        14.680
  4439                        14.680
  4440                        14.680
  4441                        14.680
  4442                        14.680
  4443                        14.680
  4444                        14.680
  4445                        14.680
  4446                        14.680
  4447                        14.680
  4448                        14.680
  4449                        14.680
  4450                        14.680
  4451                        14.680
  4452                        14.680
  4453                        14.680
  4454                        14.680
  4462                        14.680
  4463                        14.680
  4563                        14.680
  4564                        14.680
  4565                        14.680
  4566                        14.680
  4567                        14.680
  4568                        14.680
  4569                        14.680
  4570                        14.680
  4571                        14.680
  4572                        14.680
  4573                        14.680
  4574                        14.680
  4575                        14.680
  4576                        14.680
  4577                        14.680
  4578                        14.680
  4579                        14.680
  4580                        14.680
  4581                        14.680
  4624                        14.680
  4625                        14.680
  4644                        14.680
  4645                        14.680
  4646                        14.680
  4679                        14.680
  4680                        14.680
  4681                        14.680
  4682                        14.680
  4683                        14.680
  4711                        14.680
  4712                        14.680
  4713                        14.680
  4714                        14.680
  4715                        14.680
  4716                        14.680
  4717                        14.680
  4718                        14.680
  4722                        14.680
  4760                        14.680
  4761                        14.680
  4765                        14.680
  4766                        14.680
  4767                        14.680
  4768                        14.680
  4769                        14.680
  4855                        14.680
  4856                        14.680
  5284                        14.680
  5285                        14.680
  5286                        14.680
  5287                        14.680
  5288                        14.680
  5289                        14.680
  5290                        14.680
  5291                        14.680
  5292                        14.680
  5293                        14.680
  5294                        14.680
  5295                        14.680
  5296                        14.680
  5297                        14.680
  5298                        14.680
  5299                        14.680
  5300                        14.680
  5301                        14.680
  5302                        14.680
  5303                        14.680
  5304                        14.680
  5305                        14.680
  5306                        14.680
  5307                        14.680
  5308                        14.680
  5309                        14.680
  5310                        14.680
  5311                        14.680
  5312                        14.680
  5313                        14.680
  5314                        14.680
  5315                        14.680
  5316                        14.680
  5317                        14.680
  5318                        14.680
  5319                        14.680
  5320                        14.680
  5321                        14.680
  5322                        14.680
  5323                        14.680
  5324                        14.680
  5325                        14.680
  5326                        14.680
  5327                        14.680
  5328                        14.680
  5329                        14.680
  5330                        14.680
  5333                        14.680
  5334                        14.680
  6040                        14.680
  6041                        14.680
  6162                        14.680
  7207                        14.680
  7208                        14.680
  7213                        14.680
  7214                        14.680
  7219                        14.680
  7220                        14.680
  7221                        14.680
  7225                        14.680
  7229                        14.680
  7231                        14.680
  7268                        14.680
  7269                        14.680
  7271                        14.680
  7272                        14.680
  7273                        14.680
  7433                        14.680
  7434                        14.680
  7544                        14.680
  7545                        14.680
  8737                        14.680
  8818                        14.680
  9942                        14.680
  9957                        14.680
  4399                         4.408
  4400                         4.408
  4401                         4.408
  4402                         4.408
  4403                         4.408
  4404                         4.408
  4405                         4.408
  4406                         4.408
  4407                         4.408
  4408                         4.408
  4409                         4.408
  4410                         4.408
  4411                         4.408
  4412                         4.408
  4423                         4.408
  4424                         4.408
  4425                         4.408
  4426                         4.408
  4427                         4.408
  4428                         4.408
  4455                         4.408
  4456                         4.408
  4457                         4.408
  4458                         4.408
  4459                         4.408
  4460                         4.408
  4461                         4.408
  4464                         4.408
  4465                         4.408
  4466                         4.408
  4467                         4.408
  4468                         4.408
  4469                         4.408
  4470                         4.408
  4471                         4.408
  4472                         4.408
  4473                         4.408
  4474                         4.408
  4628                         4.408
  4631                         4.408
  4632                         4.408
  4633                         4.408
  4634                         4.408
  4637                         4.408
  4686                         4.408
  4687                         4.408
  4688                         4.408
  5032                         4.408
  5331                         4.408
  5332                         4.408
  5335                         4.408
  5336                         4.408
  5337                         4.408
  5338                         4.408
  5339                         4.408
  5340                         4.408
  5341                         4.408
  5342                         4.408
  5343                         4.408
  5344                         4.408
  5345                         4.408
  5346                         4.408
  5347                         4.408
  5348                         4.408
  5349                         4.408
  5350                         4.408
  6088                         4.408
  7275                         4.408
  9955                         4.408
  9956                         4.408
  ----------------------------------
  System                    4198.608
  
  
  ******************
  Node Depth Summary
  ******************
  
  ---------------------------------------------------------------------------------
                                 Average  Maximum  Maximum  Time of Max    Reported
                                   Depth    Depth      HGL   Occurrence   Max Depth
  Node                 Type       Meters   Meters   Meters  days hr:min      Meters
  ---------------------------------------------------------------------------------
<<<<<<< HEAD
  Node_02706           JUNCTION     2.59     4.54   101.38     0  03:03        0.00
  Node_02707           JUNCTION     0.97     2.79   102.22     0  02:29        0.00
  Node_02708           JUNCTION     0.84     2.78   102.53     0  02:28        0.00
  Node_02709           JUNCTION     0.94     2.99   102.62     0  02:28        0.00
  Node_02711           JUNCTION     0.63     2.70   102.61     0  02:28        0.00
  Node_02712           JUNCTION     0.64     2.68   102.58     0  02:28        0.00
  Node_02713           JUNCTION     0.68     2.67   102.52     0  02:28        0.00
  Node_02714           JUNCTION     0.33     2.13   102.53     0  02:28        0.00
  Node_02715           JUNCTION     0.69     2.54   102.35     0  02:29        0.00
  Node_02716           JUNCTION     0.75     2.51   102.22     0  02:29        0.00
  Node_02717           JUNCTION     0.81     2.59   102.23     0  02:29        0.00
  Node_02718           JUNCTION     0.82     2.65   102.25     0  02:29        0.00
  Node_02720           JUNCTION     0.84     2.69   102.25     0  02:29        0.00
  Node_02721           JUNCTION     1.14     3.03   102.27     0  02:29        0.00
  Node_02722           JUNCTION     0.14     0.76   102.56     0  02:29        0.00
  Node_02723           JUNCTION     1.07     2.90   102.19     0  02:29        0.00
  Node_02724           JUNCTION     0.93     2.68   102.10     0  02:29        0.00
  Node_02725           JUNCTION     0.95     2.62   101.98     0  02:29        0.00
  Node_02726           JUNCTION     1.03     2.60   101.87     0  02:29        0.00
  Node_02727           JUNCTION     1.13     2.62   101.75     0  02:29        0.00
  Node_02728           JUNCTION     0.49     1.68   101.76     0  02:29        0.00
  Node_02729           JUNCTION     1.17     2.57   101.63     0  02:29        0.00
  Node_02730           JUNCTION     1.18     2.46   101.49     0  02:29        0.00
  Node_02731           JUNCTION     1.59     2.72   101.31     0  02:29        0.00
  Node_02732           JUNCTION     1.15     2.19   101.21     0  02:27        0.00
  Node_02733           JUNCTION     1.14     2.27   101.28     0  02:28        0.00
  Node_02734           JUNCTION     1.42     2.61   101.32     0  02:28        0.00
  Node_02735           JUNCTION     1.32     2.51   101.32     0  02:28        0.00
  Node_02736           JUNCTION     1.50     2.73   101.34     0  02:28        0.00
  Node_02737           JUNCTION     1.47     2.73   101.35     0  02:28        0.00
  Node_02738           JUNCTION     1.29     2.60   101.37     0  02:28        0.00
  Node_02739           JUNCTION     1.15     2.50   101.37     0  02:28        0.00
  Node_02740           JUNCTION     1.15     2.54   101.38     0  03:14        0.00
  Node_02741           JUNCTION     0.82     2.08   101.38     0  03:08        0.00
  Node_02742           JUNCTION     1.16     2.58   101.39     0  03:14        0.00
  Node_02743           JUNCTION     1.56     3.02   101.39     0  03:11        0.00
  Node_02744           JUNCTION     0.74     2.05   101.39     0  03:08        0.00
  Node_02745           JUNCTION     1.28     2.77   101.39     0  03:11        0.00
  Node_02746           JUNCTION     1.16     2.70   101.39     0  03:10        0.00
  Node_02747           JUNCTION     0.28     1.04   101.39     0  03:13        0.00
  Node_02748           JUNCTION     0.23     0.94   101.39     0  03:07        0.00
  Node_02749           JUNCTION     1.15     2.76   101.39     0  03:14        0.00
  Node_02750           JUNCTION     1.14     2.78   101.39     0  03:13        0.00
  Node_02751           JUNCTION     1.11     2.80   101.39     0  03:14        0.00
  Node_02752           JUNCTION     1.10     2.84   101.39     0  03:06        0.00
  Node_02753           JUNCTION     1.12     2.91   101.39     0  03:14        0.00
  Node_02754           JUNCTION     1.12     3.06   101.38     0  03:14        0.00
  Node_02755           JUNCTION     2.04     3.99   101.38     0  03:06        0.00
  Node_02963           JUNCTION     0.63     2.34   102.25     0  02:29        0.00
  Node_02968           JUNCTION     0.39     1.26   101.38     0  02:28        0.00
  Node_02969           JUNCTION     0.47     1.51   101.39     0  03:10        0.00
  Node_02973           JUNCTION     1.57     3.50   101.38     0  03:04        0.00
  Node_02974           JUNCTION     1.65     3.95   101.08     0  03:14        0.00
  Node_02975           JUNCTION     1.66     3.96   101.09     0  03:15        0.00
  Node_02976           JUNCTION     1.75     4.03   101.22     0  03:14        0.00
  Node_02977           JUNCTION     1.84     4.09   101.42     0  03:03        0.00
  Node_02978           JUNCTION     1.75     4.00   101.53     0  03:10        0.00
  Node_02979           JUNCTION     1.55     3.87   100.98     0  03:15        0.00
  Node_02980           JUNCTION     1.44     3.77   100.86     0  03:14        0.00
  Node_02981           JUNCTION     1.39     3.78   100.73     0  03:13        0.00
  Node_02983           JUNCTION     0.38     1.25   101.37     0  02:28        0.00
  Node_02984           JUNCTION     2.17     4.40   101.38     0  03:14        0.00
  Node_03924           JUNCTION     0.24     1.00   101.82     0  02:21        0.00
  Node_03925           JUNCTION     0.62     2.06   102.43     0  02:57        0.00
  Node_03926           JUNCTION     0.17     0.96   102.43     0  02:39        0.00
  Node_03927           JUNCTION     0.60     2.05   102.43     0  02:39        0.00
  Node_03928           JUNCTION     0.62     2.08   102.42     0  02:50        0.00
  Node_03929           JUNCTION     0.62     2.10   102.40     0  02:50        0.00
  Node_03930           JUNCTION     0.65     2.13   102.39     0  02:41        0.00
  Node_03931           JUNCTION     0.64     2.13   102.37     0  02:44        0.00
  Node_03932           JUNCTION     0.68     2.16   102.32     0  02:31        0.00
  Node_03933           JUNCTION     0.68     2.13   102.25     0  02:56        0.00
  Node_03934           JUNCTION     0.31     1.40   102.26     0  02:37        0.00
  Node_03935           JUNCTION     0.74     2.18   102.15     0  02:35        0.00
  Node_03936           JUNCTION     0.74     2.12   102.05     0  02:32        0.00
  Node_03937           JUNCTION     1.30     1.77   101.93     0  02:59        0.00
  Node_03938           JUNCTION     1.44     3.25   102.44     0  02:34        0.00
  Node_03939           JUNCTION     1.53     3.39   102.43     0  02:30        0.00
  Node_03940           JUNCTION     1.60     3.47   102.40     0  02:31        0.00
  Node_03941           JUNCTION     1.67     3.53   102.34     0  02:19        0.00
  Node_03942           JUNCTION     1.70     3.54   102.29     0  02:44        0.00
  Node_03943           JUNCTION     1.77     3.58   102.19     0  01:55        0.00
  Node_03944           JUNCTION     1.86     3.69   102.17     0  01:55        0.00
  Node_03945           JUNCTION     1.92     3.78   102.20     0  02:19        0.00
  Node_03946           JUNCTION     1.99     3.88   102.24     0  03:07        0.00
  Node_03947           JUNCTION     2.26     4.38   102.27     0  03:12        0.00
  Node_03948           JUNCTION     2.22     4.42   102.27     0  02:58        0.00
  Node_03949           JUNCTION     2.32     4.57   102.27     0  03:02        0.00
  Node_03950           JUNCTION     2.19     4.50   102.27     0  03:09        0.00
  Node_03951           JUNCTION     2.16     4.55   102.24     0  03:11        0.00
  Node_03952           JUNCTION     2.15     4.61   102.20     0  03:14        0.00
  Node_03953           JUNCTION     2.04     4.55   102.12     0  03:13        0.00
  Node_03954           JUNCTION     2.88     5.39   101.97     0  03:15        0.00
  Node_03955           JUNCTION     1.79     4.27   101.76     0  03:13        0.00
  Node_04031           JUNCTION     0.40     1.03   102.26     0  02:44        0.00
  Node_04032           JUNCTION     1.92     3.92   102.27     0  03:14        0.00
  Node_04040           JUNCTION     0.72     1.73   102.28     0  02:28        0.00
  Node_04050           JUNCTION     0.41     1.60   102.57     0  04:23        0.00
  Node_04054           JUNCTION     0.24     1.29   102.43     0  02:50        0.00
  Node_04055           JUNCTION     0.39     1.51   102.32     0  02:49        0.00
  Node_04057           JUNCTION     0.43     1.60   101.91     0  02:22        0.00
  Node_04384           JUNCTION     1.95     4.14   101.72     0  03:13        0.00
  Node_04385           JUNCTION     1.67     3.86   101.77     0  03:11        0.00
  Node_04386           JUNCTION     1.67     3.85   101.79     0  03:07        0.00
  Node_04387           JUNCTION     1.67     3.83   101.80     0  03:09        0.00
  Node_04388           JUNCTION     1.67     3.82   101.82     0  03:15        0.00
  Node_04389           JUNCTION     0.46     1.46   101.83     0  03:10        0.00
  Node_04390           JUNCTION     1.67     3.81   101.83     0  03:08        0.00
  Node_04391           JUNCTION     1.66     3.78   101.84     0  02:56        0.00
  Node_04392           JUNCTION     1.78     3.89   101.85     0  03:00        0.00
  Node_04393           JUNCTION     1.66     3.74   101.85     0  03:14        0.00
  Node_04394           JUNCTION     0.72     2.20   101.85     0  03:03        0.00
  Node_04395           JUNCTION     1.65     3.70   101.85     0  03:10        0.00
  Node_04396           JUNCTION     1.63     3.65   101.85     0  03:13        0.00
  Node_04397           JUNCTION     0.60     1.96   101.86     0  03:11        0.00
  Node_04428           JUNCTION     1.64     3.64   101.86     0  02:56        0.00
  Node_04429           JUNCTION     1.63     3.61   101.86     0  03:13        0.00
  Node_04430           JUNCTION     1.62     3.57   101.85     0  03:09        0.00
  Node_04431           JUNCTION     1.41     3.28   101.85     0  03:14        0.00
  Node_04432           JUNCTION     1.33     3.16   101.84     0  02:52        0.00
  Node_04433           JUNCTION     1.17     2.96   101.84     0  03:05        0.00
  Node_04434           JUNCTION     1.45     3.25   101.84     0  03:15        0.00
  Node_04435           JUNCTION     1.29     3.05   101.83     0  03:13        0.00
  Node_04436           JUNCTION     1.69     3.42   101.82     0  02:55        0.00
  Node_04437           JUNCTION     1.82     3.51   101.80     0  03:00        0.00
  Node_04438           JUNCTION     2.12     3.80   101.81     0  02:45        0.00
  Node_04439           JUNCTION     1.18     2.84   101.82     0  03:12        0.00
  Node_04440           JUNCTION     1.18     2.81   101.82     0  03:05        0.00
  Node_04441           JUNCTION     0.93     2.50   101.83     0  02:48        0.00
  Node_04442           JUNCTION     1.25     2.86   101.83     0  03:13        0.00
  Node_04443           JUNCTION     1.11     2.69   101.83     0  03:04        0.00
  Node_04444           JUNCTION     1.10     2.66   101.83     0  02:44        0.00
  Node_04445           JUNCTION     1.04     2.58   101.84     0  03:04        0.00
  Node_04446           JUNCTION     1.01     2.52   101.86     0  03:04        0.00
  Node_04447           JUNCTION     0.96     2.42   101.87     0  03:11        0.00
  Node_04448           JUNCTION     0.98     2.44   101.89     0  02:20        0.00
  Node_04449           JUNCTION     1.00     2.46   101.92     0  02:20        0.00
  Node_04450           JUNCTION     1.15     2.61   101.93     0  02:20        0.00
  Node_04451           JUNCTION     0.97     2.40   101.94     0  02:20        0.00
  Node_04452           JUNCTION     0.74     2.14   101.96     0  02:20        0.00
  Node_04453           JUNCTION     0.56     1.76   101.98     0  02:20        0.00
  Node_04461           JUNCTION     0.93     2.29   101.91     0  02:20        0.00
  Node_04462           JUNCTION     0.93     2.43   102.08     0  02:30        0.00
  Node_04562           JUNCTION     0.86     2.46   102.05     0  02:20        0.00
  Node_04563           JUNCTION     1.19     2.92   102.04     0  02:20        0.00
  Node_04564           JUNCTION     0.98     2.69   102.08     0  02:20        0.00
  Node_04565           JUNCTION     1.00     2.74   102.10     0  02:20        0.00
  Node_04566           JUNCTION     1.13     2.89   102.09     0  02:20        0.00
  Node_04567           JUNCTION     1.08     2.85   102.06     0  02:20        0.00
  Node_04568           JUNCTION     1.09     2.84   102.03     0  02:20        0.00
  Node_04569           JUNCTION     1.24     3.04   102.01     0  02:20        0.00
  Node_04570           JUNCTION     0.80     2.29   102.02     0  02:20        0.00
  Node_04571           JUNCTION     1.24     2.99   101.92     0  02:20        0.00
  Node_04572           JUNCTION     2.62     4.44   101.97     0  02:20        0.00
  Node_04573           JUNCTION     2.30     4.16   102.00     0  02:20        0.00
  Node_04574           JUNCTION     2.60     3.74   102.04     0  02:20        0.00
  Node_04575           JUNCTION     2.78     4.73   102.04     0  02:20        0.00
  Node_04576           JUNCTION     1.40     3.35   102.00     0  02:20        0.00
  Node_04577           JUNCTION     1.43     3.36   101.95     0  02:52        0.00
  Node_04578           JUNCTION     1.47     3.42   101.93     0  02:58        0.00
  Node_04579           JUNCTION     1.53     3.50   101.91     0  02:56        0.00
  Node_04580           JUNCTION     0.72     1.98   101.76     0  02:20        0.00
  Node_04623           JUNCTION     0.63     2.11   101.77     0  03:14        0.00
  Node_04624           JUNCTION     0.83     2.38   101.84     0  02:37        0.00
  Node_04643           JUNCTION     0.69     2.02   101.93     0  02:20        0.00
  Node_04644           JUNCTION     0.69     1.99   101.83     0  02:41        0.00
  Node_04645           JUNCTION     0.86     2.05   101.65     0  02:20        0.00
  Node_04678           JUNCTION     0.69     2.13   101.86     0  02:55        0.00
  Node_04679           JUNCTION     0.43     1.59   101.77     0  03:14        0.00
  Node_04680           JUNCTION     1.72     3.92   101.69     0  03:14        0.00
  Node_04681           JUNCTION     1.70     3.91   101.63     0  03:14        0.00
  Node_04682           JUNCTION     0.30     1.00   102.01     0  02:20        0.00
  Node_04710           JUNCTION     0.67     2.00   101.99     0  02:26        0.00
[...]
  Link_01816                 803.936
  Link_01817                  16.118
  Link_01818                 780.465
  Link_01819                 734.773
  Link_01820                  41.271
  Link_01821                  32.430
  Link_01822                   7.958
  Link_01823                 286.353
  Link_01824                 281.518
  Link_01825                  72.952
  Link_01826                  77.501
  Link_01827                   4.406
  Link_01828                  86.507
  Link_01829                   7.950
  Link_01830                  99.117
  Link_01831                   4.405
  Link_01832                 108.138
  Link_01833                 112.699
  Link_01834                 121.825
  Link_01835                   4.405
  Link_01836                  59.879
  Link_01837                  22.275
  Link_01838                  43.421
  Link_01839                  55.227
  Link_01840                  50.759
  Link_01841                  46.314
  Link_01842                  35.690
  Link_01843                  26.724
  Link_01844                  22.268
  Link_02074                  18.118
  Link_02075                 156.708
  Link_02076                 162.035
  Link_02077                  33.036
  Link_02078                 189.783
  Link_02079                  20.055
  Link_02080                 224.974
  Link_02081                 239.999
  Link_02082                 254.989
  Link_02083                  20.182
  Link_02084                  18.463
  Link_02085                 569.155
  Link_02086                 575.649
  Link_02087                 580.428
  Link_02088                 584.686
  Link_02089                 589.118
  Link_02090                 633.298
  Link_02091                 618.113
  Link_02092                 602.993
  Link_02093                  18.165
  Link_02094                 553.880
  Link_02095                 538.885
  Link_02096                 586.580
  Link_02097                  25.209
  Link_02098                 112.954
  Link_02099                 571.503
  Link_02100                 556.631
  Link_02101                  74.715
  Link_02102                 579.528
  Link_02103                 541.039
  Link_02104                  36.883
  Link_02105                 434.933
  Link_02106                  22.037
  Link_02107                  14.817
  Link_02108                 459.569
  Link_02109                 445.365
  Link_02110                 418.058
  Link_02111                 272.277
  Link_02112                  23.507
  Link_02113                 197.383
  Link_02114                  62.332
  Link_02115                  57.780
  Link_02116                  53.305
  Link_02117                  48.877
  Link_02118                  44.423
  Link_02123                   7.952
  Link_02124                  12.387
  Link_02125                  16.828
  Link_02126                  21.252
  Link_02127                  39.988
  Link_02128                  35.533
  Link_02129                  31.116
  Link_02130                  26.687
  Link_02131                  22.224
  Link_02132                  17.755
  Link_02133                  13.286
  Link_02134                 201.966
  Link_02135                 206.510
  Link_02136                 219.036
  Link_02137                   7.950
  Link_02138                 254.340
  Link_02139                 249.768
  Link_02140                 245.131
  Link_02141                 240.601
  Link_02142                 236.008
  Link_02143                 223.558
  Link_02383                  14.861
  Link_02384                  15.396
  Link_02385                  25.269
  Link_02386                  32.390
  Link_02387                  72.273
  Link_02388                  86.929
  Link_02389                  25.067
  Link_02390                 101.625
  Link_02391                 140.871
  Link_02392                  47.884
  Link_02393                 202.982
  Link_05459                 124.448
  Link_05460                 271.357
  Link_05461                 332.872
  Link_05462                 533.535
  Link_05463                 616.332
  Link_05464                  53.860
  Link_05496                1868.208
  Link_05662                  80.950
  Link_05663                  17.453
  Link_05664                  65.652
  Link_05665                 415.155
  Link_05677                 264.452
  Link_05678                  23.558
  Link_05720                1103.559
  Link_05721                 847.751
  Link_05722                  23.435
  Link_05723                 130.452
  Link_05725                  25.697
  Link_05726                 566.438
  Link_05727                  16.474
  Link_05728                 569.838
  Link_05729                 594.665
  Link_05730                 413.043
  Link_05731                 276.782
  Link_05732                 267.779
  Link_05742                  32.521
  Link_05743                 157.985
  Link_05744                 270.316
  Link_05752                 349.085
  Link_05753                   6.187
  Link_05754                  31.200
  Link_05791                   7.950
  Link_05812                 266.816
  Link_05813                 169.698
  Link_05814                 127.609
  Link_05815                 166.035
  Link_05816                  29.273
  Link_05817                  41.782
  Link_05818                  13.291
  Link_05983                  41.777
  Link_05984                  27.036
  Link_06039                   4.400
  Link_07220                 192.555
  Link_07221                 207.882
  Link_07222                 150.895
  Link_07230                 165.775
  Link_07231                 180.441
  Link_07233                 388.568
  Link_07234                 403.461
  Link_07235                 193.539
  Link_07270                  40.221
  Link_07271                  65.759
  Link_07274                  25.662
  Link_07277                  92.065
  Link_07278                 114.217
  Link_07295                 121.197
  Link_07296                 139.186
  Link_07297                 177.667
  Link_07303                  18.449
  Link_07306                 106.178
  Link_07321                  13.282
  Link_07464                  29.043
  Link_07578                  29.393
  Link_07579                 524.382
  Link_07580                 489.793
  Link_07687                  27.332
  Link_07865                  13.275
  Link_08891                  20.088
  Link_08912                  41.260
  Link1_to_ChengXi          1991.422
  Link2_to_ChengXi           434.572
  Link3_to_ChengXi           419.031
  Link_to_LaoDongLu          422.529
  Pump_ChengXi1              873.700
  Pump_ChengXi2              739.448
  Pump_ChengXi3              611.232
  Pump_ChengXi4              557.110
  Pump_LaoDongLu1            181.187
  Pump_LaoDongLu2            127.625
  Pump_LaoDongLu3            123.014
  outfallpump               2186.627
  

  Analysis begun on:  Mon Aug 16 03:25:02 2021
  Analysis ended on:  Mon Aug 16 03:25:04 2021
  Total elapsed time: 00:00:02
=======
  Link_01146                  42.834
  Link_01147                  57.940
  Link_01148                  72.929
  Link_01149                  84.265
  Link_01150                  98.858
  Link_01151                  72.632
  Link_01152                  64.646
  Link_01274                  16.702
  Link_01275                  31.532
  Link_01276                  67.102
  Link_01292                  23.173
  Link_01294                  96.009
  Link_01295                 110.581
  Link_01296                 125.313
  Link_01297                 160.065
  Link_01298                  16.479
  Link_01299                 191.338
  Link_01300                 206.114
  Link_01301                 220.903
  Link_01302                  16.417
  Link_01312                  20.055
  Link_01313                 289.086
  Link_01314                 296.040
  Link_01315                 303.805
  Link_01316                 313.717
  Link_01317                 326.601
  Link_01318                 342.150
  Link_01319                 357.779
  Link_01320                 414.125
  Link_01323                 253.198
  Link_01324                  18.488
  Link_01325                 285.454
  Link_01326                 300.664
  Link_01327                 198.123
  Link_01328                  23.149
  Link_01329                 223.374
  Link_01330                 225.726
  Link_01331                 230.014
  Link_01332                 196.477
  Link_01333                  18.629
  Link_01334                 229.418
  Link_01335                  19.671
  Link_01336                 263.751
  Link_01337                 153.483
  Link_01338                  18.647
  Link_01339                 128.861
  Link_01340                  13.260
  Link_01341                 128.116
  Link_01342                  18.516
  Link_01343                 150.362
  Link_01344                  27.423
  Link_01345                 181.563
  Link_01346                 193.452
  Link_01347                  45.620
  Link_01348                 178.190
  Link_01349                  27.477
  Link_01350                 189.931
  Link_01351                  17.924
  Link_01352                 211.181
  Link_01556                  19.109
  Link_01557                  36.555
  Link_01558                1976.784
  Link_01559                  41.144
  Link_01560                1962.176
  Link_01561                2026.712
  Link_01562                2043.252
  Link_01563                2059.056
  Link_01564                  15.282
  Link_01565                 129.637
  Link_01566                   9.169
  Link_01567                  18.683
  Link_01568                 154.041
  Link_01569                  37.258
  Link_01570                 177.806
  Link_01571                 134.216
  Link_01572                 208.871
  Link_01573                 152.733
  Link_01574                 136.471
  Link_01575                  19.769
  Link_01576                 101.341
  Link_01577                  66.331
  Link_01578                  50.459
  Link_01579                  18.835
  Link_01580                   8.503
  Link_01581                  13.810
  Link_01582                   9.066
  Link_01731                  31.999
  Link_01732                  56.447
  Link_01733                  76.393
  Link_01734                  25.777
  Link_01735                  19.033
  Link_01751                 134.419
  Link_01752                 146.623
  Link_01753                 174.951
  Link_01754                 187.322
  Link_01755                 201.323
  Link_01756                  16.467
  Link_01757                 238.441
  Link_01758                  17.677
  Link_01759                  17.779
  Link_01760                 273.044
  Link_01761                 282.240
  Link_01762                 292.054
  Link_01763                  24.626
  Link_01764                 317.734
  Link_01765                 336.052
  Link_01766                 343.169
  Link_01767                 444.405
  Link_01768                 443.690
  Link_01769                 445.232
  Link_01770                 445.512
  Link_01771                 446.544
  Link_01772                  34.719
  Link_01773                 463.120
  Link_01774                  39.671
  Link_01775                 252.850
  Link_01776                 235.666
  Link_01777                 217.343
  Link_01778                 332.352
  Link_01779                 181.073
  Link_01780                 357.657
  Link_01781                  75.239
  Link_01782                 495.225
  Link_01783                  17.930
  Link_01784                 506.627
  Link_01785                 513.211
  Link_01786                  68.409
  Link_01787                  39.519
  Link_01788                 595.272
  Link_01789                 603.046
  Link_01790                  23.483
  Link_01791                  23.094
  Link_01792                  22.402
  Link_01793                 644.725
  Link_01794                 652.812
  Link_01795                 661.003
  Link_01796                 670.117
  Link_01797                 678.611
  Link_01798                1190.442
  Link_01799                1177.734
  Link_01800                1203.286
  Link_01801                 724.965
  Link_01802                1105.168
  Link_01803                1162.880
  Link_01804                 963.970
  Link_01805                 948.331
  Link_01806                 932.616
  Link_01807                 916.030
  Link_01808                  21.790
  Link_01809                 879.396
  Link_01810                 847.853
  Link_01811                  14.703
  Link_01812                  59.999
  Link_01813                  50.425
  Link_01814                 799.503
  Link_01815                 787.664
  Link_01816                 766.225
  Link_01817                  16.291
  Link_01818                 733.708
  Link_01819                 693.056
  Link_01820                  31.946
  Link_01821                  32.767
  Link_01822                   7.323
  Link_01823                 325.886
  Link_01824                 321.386
  Link_01825                  66.117
  Link_01826                  69.376
  Link_01827                   4.866
  Link_01828                  76.725
  Link_01829                   7.886
  Link_01830                  86.171
  Link_01831                   4.999
  Link_01832                  93.201
  Link_01833                  96.504
  Link_01834                 103.055
  Link_01835                   5.139
  Link_01836                  86.229
  Link_01837                  22.350
  Link_01838                  46.586
  Link_01839                  71.103
  Link_01840                  62.310
  Link_01841                  55.497
  Link_01842                  40.264
  Link_01843                  27.154
  Link_01844                  22.272
  Link_02074                  18.171
  Link_02075                 161.813
  Link_02076                 167.369
  Link_02077                  33.042
  Link_02078                 200.132
  Link_02079                  20.145
  Link_02080                 235.352
  Link_02081                 250.323
  Link_02082                 265.295
  Link_02083                  20.143
  Link_02084                  18.512
  Link_02085                 494.920
  Link_02086                 497.882
  Link_02087                 502.287
  Link_02088                 506.743
  Link_02089                 511.777
  Link_02090                 584.764
  Link_02091                 569.557
  Link_02092                 554.327
  Link_02093                  18.143
  Link_02094                 505.356
  Link_02095                 489.964
  Link_02096                 534.962
  Link_02097                  25.277
  Link_02098                 111.196
  Link_02099                 519.840
  Link_02100                 504.996
  Link_02101                  72.322
  Link_02102                 525.673
  Link_02103                 487.722
  Link_02104                  37.571
  Link_02105                 381.278
  Link_02106                  22.213
  Link_02107                  14.887
  Link_02108                 406.340
  Link_02109                 390.876
  Link_02110                 435.153
  Link_02111                 311.787
  Link_02112                  23.554
  Link_02113                 236.517
  Link_02114                 107.463
  Link_02115                 102.071
  Link_02116                  97.036
  Link_02117                  93.270
  Link_02118                  90.411
  Link_02123                   7.952
  Link_02124                  12.386
  Link_02125                  17.023
  Link_02126                  21.599
  Link_02127                  84.765
  Link_02128                  88.191
  Link_02129                 262.166
  Link_02130                  51.143
  Link_02131                  46.126
  Link_02132                  36.074
  Link_02133                  22.589
  Link_02134                 241.050
  Link_02135                 245.635
  Link_02136                 257.700
  Link_02137                   9.178
  Link_02138                 293.985
  Link_02139                 289.322
  Link_02140                 284.465
  Link_02141                 279.772
  Link_02142                 275.006
  Link_02143                 262.328
  Link_02383                  14.741
  Link_02384                  15.379
  Link_02385                  25.150
  Link_02386                  32.446
  Link_02387                  71.938
  Link_02388                  86.643
  Link_02389                  25.358
  Link_02390                 101.580
  Link_02391                 141.593
  Link_02392                  47.799
  Link_02393                 204.005
  Link_05459                 122.278
  Link_05460                 263.526
  Link_05461                 327.108
  Link_05462                 485.794
  Link_05463                 637.169
  Link_05464                  53.323
  Link_05496                1944.299
  Link_05662                  81.273
  Link_05663                  17.414
  Link_05664                  62.101
  Link_05665                 429.632
  Link_05677                 267.265
  Link_05678                  23.665
  Link_05720                1089.289
  Link_05721                 831.554
  Link_05722                  23.541
  Link_05723                 167.509
  Link_05725                  26.890
  Link_05726                 494.650
  Link_05727                  16.490
  Link_05728                 520.867
  Link_05729                 540.455
  Link_05730                 431.259
  Link_05731                 315.913
  Link_05732                 307.675
  Link_05742                  32.485
  Link_05743                 160.975
  Link_05744                 280.270
  Link_05752                 339.150
  Link_05753                   8.970
  Link_05754                  32.588
  Link_05791                   9.966
  Link_05812                 266.876
  Link_05813                 169.639
  Link_05814                 127.505
  Link_05815                 165.942
  Link_05816                  30.188
  Link_05817                  40.662
  Link_05818                  12.337
  Link_05983                  41.814
  Link_05984                  27.046
  Link_06039                   4.400
  Link_07220                 190.835
  Link_07221                 205.624
  Link_07222                 165.006
  Link_07230                 179.932
  Link_07231                 194.743
  Link_07233                 418.601
  Link_07234                 433.474
  Link_07235                 209.278
  Link_07270                  39.808
  Link_07271                  65.937
  Link_07274                  25.633
  Link_07277                  90.010
  Link_07278                 112.036
  Link_07295                 120.423
  Link_07296                 137.788
  Link_07297                 176.067
  Link_07303                  18.370
  Link_07306                  92.848
  Link_07321                  13.282
  Link_07464                  29.074
  Link_07578                  28.132
  Link_07579                 472.222
  Link_07580                 434.184
  Link_07687                  27.301
  Link_07865                  12.927
  Link_08891                  20.072
  Link_08912                  41.251
  Link1_to_ChengXi          2075.542
  Link2_to_ChengXi           449.048
  Link3_to_ChengXi           449.029
  Link_to_LaoDongLu          439.198
  Pump_ChengXi1             1081.533
  Pump_ChengXi2              685.028
  Pump_ChengXi3              619.636
  Pump_ChengXi4              619.636
  Pump_LaoDongLu1            189.018
  Pump_LaoDongLu2            114.589
  Pump_LaoDongLu3             72.559
  outfallpump               1973.537
  

  Analysis begun on:  Tue Aug 17 21:43:52 2021
  Analysis ended on:  Tue Aug 17 21:43:55 2021
  Total elapsed time: 00:00:03
>>>>>>> b040755ab93617f94f1ab7a7036927f36e763e5a
>>>>>>> ebd46bdc835ac17077bb70c3b6f6db3a4ee81ecd
