
  EPA STORM WATER MANAGEMENT MODEL - VERSION 5.1 (Build 5.3.0.dev0)
  --------------------------------------------------------------

  WARNING 04: minimum elevation drop used for Conduit Link_01776
  WARNING 04: minimum elevation drop used for Conduit Link_01779
  WARNING 04: minimum elevation drop used for Conduit Link_07234
  WARNING 02: maximum depth increased for Node Node_06087
  
  *********************************************************
  NOTE: The summary statistics displayed in this report are
  based on results found at every computational time step,  
  not just on results from each reporting time step.
  *********************************************************
  
  ****************
  Analysis Options
  ****************
  Flow Units ............... CMS
  Process Models:
    Rainfall/Runoff ........ YES
    RDII ................... NO
    Snowmelt ............... NO
    Groundwater ............ NO
    Flow Routing ........... YES
    Ponding Allowed ........ YES
    Water Quality .......... YES
  Infiltration Method ...... HORTON
  Flow Routing Method ...... DYNWAVE
  Surcharge Method ......... EXTRAN
  Starting Date ............ 01/02/2011 00:00:00
  Ending Date .............. 01/02/2011 06:00:00
  Antecedent Dry Days ...... 0.0
  Report Time Step ......... 00:15:00
  Wet Time Step ............ 00:05:00
  Dry Time Step ............ 01:00:00
  Routing Time Step ........ 60.00 sec
  Variable Time Step ....... YES
  Maximum Trials ........... 8
  Number of Threads ........ 1
  Head Tolerance ........... 0.001500 m
  
  
  **************************        Volume         Depth
  Runoff Quantity Continuity     hectare-m            mm
  **************************     ---------       -------
  Total Precipitation ......         0.736        25.750
  Evaporation Loss .........         0.000         0.000
  Infiltration Loss ........         0.050         1.733
  Surface Runoff ...........         0.688        24.053
  Final Storage ............         0.000         0.009
  Continuity Error (%) .....        -0.177
  
  
  **************************           COD
  Runoff Quality Continuity             kg
  **************************    ----------
  Initial Buildup ..........         0.000
  Surface Buildup ..........         0.000
  Wet Deposition ...........      1936.875
  Sweeping Removal .........         0.000
  Infiltration Loss ........       130.353
  BMP Removal ..............         0.000
  Surface Runoff ...........      1809.249
  Remaining Buildup ........         0.706
  Continuity Error (%) .....        -0.177
  
  
  **************************        Volume        Volume
  Flow Routing Continuity        hectare-m      10^6 ltr
  **************************     ---------     ---------
  Dry Weather Inflow .......         0.153         1.529
  Wet Weather Inflow .......         0.688         6.879
  Groundwater Inflow .......         0.000         0.000
  RDII Inflow ..............         0.000         0.000
  External Inflow ..........         0.000         0.000
<<<<<<< HEAD
  External Outflow .........         0.645         6.448
  Flooding Loss ............         0.227         2.274
=======
<<<<<<< HEAD
  External Outflow .........         0.648         6.482
  Flooding Loss ............         0.229         2.287
  Evaporation Loss .........         0.000         0.000
  Exfiltration Loss ........         0.000         0.000
  Initial Stored Volume ....         0.077         0.773
  Final Stored Volume ......         0.048         0.484
  Continuity Error (%) .....        -0.782
=======
  External Outflow .........         0.667         6.672
  Flooding Loss ............         0.206         2.057
>>>>>>> ebd46bdc835ac17077bb70c3b6f6db3a4ee81ecd
  Evaporation Loss .........         0.000         0.000
  Exfiltration Loss ........         0.000         0.000
  Initial Stored Volume ....         0.077         0.773
  Final Stored Volume ......         0.052         0.519
<<<<<<< HEAD
  Continuity Error (%) .....        -0.657
=======
  Continuity Error (%) .....        -0.731
>>>>>>> b040755ab93617f94f1ab7a7036927f36e763e5a
>>>>>>> ebd46bdc835ac17077bb70c3b6f6db3a4ee81ecd
  
  
  **************************           COD
  Quality Routing Continuity            kg
  **************************    ----------
  Dry Weather Inflow .......       845.606
  Wet Weather Inflow .......      1809.132
  Groundwater Inflow .......         0.000
  RDII Inflow ..............         0.000
  External Inflow ..........         0.000
<<<<<<< HEAD
  External Outflow .........      1621.024
  Flooding Loss ............       656.054
  Exfiltration Loss ........         0.000
  Mass Reacted .............         0.000
  Initial Stored Mass ......       427.257
  Final Stored Mass ........       216.163
  Continuity Error (%) .....        19.103
=======
<<<<<<< HEAD
  External Outflow .........      2059.246
  Flooding Loss ............       655.769
  Exfiltration Loss ........         0.000
  Mass Reacted .............         0.000
  Initial Stored Mass ......       427.257
  Final Stored Mass ........       202.215
  Continuity Error (%) .....         5.346
=======
  External Outflow .........      1954.313
  Flooding Loss ............       588.306
  Exfiltration Loss ........         0.000
  Mass Reacted .............         0.000
  Initial Stored Mass ......       427.257
  Final Stored Mass ........       214.875
  Continuity Error (%) .....        10.529
>>>>>>> b040755ab93617f94f1ab7a7036927f36e763e5a
>>>>>>> ebd46bdc835ac17077bb70c3b6f6db3a4ee81ecd
  
  
  *************************
  Highest Continuity Errors
  *************************
<<<<<<< HEAD
  Node Node_04574 (-6.36%)
  Node Node_02755 (1.45%)
=======
<<<<<<< HEAD
  Node Node_02755 (6.78%)
  Node Node_02706 (-2.27%)
  Node Node_04574 (-1.38%)
  Node Node_04563 (1.16%)
=======
  Node Node_04574 (-2.19%)
  Node Node_02706 (-1.83%)
  Node Node_04563 (1.14%)
>>>>>>> b040755ab93617f94f1ab7a7036927f36e763e5a
>>>>>>> ebd46bdc835ac17077bb70c3b6f6db3a4ee81ecd
  
  
  ***************************
  Time-Step Critical Elements
  ***************************
<<<<<<< HEAD
  Link Link_01778 (90.30%)
  Link Link_01558 (5.72%)
  Link Link_01769 (1.18%)
=======
<<<<<<< HEAD
  Link Link_01778 (90.07%)
  Link Link_01558 (6.09%)
  Link Link_01769 (1.20%)
=======
  Link Link_01778 (89.44%)
  Link Link_01558 (7.18%)
>>>>>>> b040755ab93617f94f1ab7a7036927f36e763e5a
>>>>>>> ebd46bdc835ac17077bb70c3b6f6db3a4ee81ecd
  
  
  ********************************
  Highest Flow Instability Indexes
  ********************************
<<<<<<< HEAD
  Link Link_01323 (45)
  Link Link_01336 (44)
  Link Link_01778 (44)
  Link Link_01324 (43)
  Link Link_01325 (43)
=======
<<<<<<< HEAD
  Link Link_01323 (45)
  Link Link_01324 (44)
  Link Link_01336 (43)
  Link Link_01325 (43)
  Link Link_01778 (42)
=======
  Link Link_01323 (46)
  Link Link_01336 (45)
  Link Link_01325 (44)
  Link Link_01778 (43)
  Link Link_01324 (43)
>>>>>>> b040755ab93617f94f1ab7a7036927f36e763e5a
>>>>>>> ebd46bdc835ac17077bb70c3b6f6db3a4ee81ecd
  
  
  *************************
  Routing Time Step Summary
  *************************
  Minimum Time Step           :     5.00 sec
  Average Time Step           :     5.00 sec
  Maximum Time Step           :     5.00 sec
  Percent in Steady State     :     0.00
<<<<<<< HEAD
  Average Iterations per Step :     4.61
  Percent Not Converging      :    22.99
=======
<<<<<<< HEAD
  Average Iterations per Step :     4.64
  Percent Not Converging      :    23.31
=======
  Average Iterations per Step :     4.65
  Percent Not Converging      :    21.50
>>>>>>> b040755ab93617f94f1ab7a7036927f36e763e5a
>>>>>>> ebd46bdc835ac17077bb70c3b6f6db3a4ee81ecd
  
  
  ***************************
  Subcatchment Runoff Summary
  ***************************
  
  ------------------------------------------------------------------------------------------------------------------------------
                            Total      Total      Total      Total     Imperv       Perv      Total       Total     Peak  Runoff
                           Precip      Runon       Evap      Infil     Runoff     Runoff     Runoff      Runoff   Runoff   Coeff
  Subcatchment                 mm         mm         mm         mm         mm         mm         mm    10^6 ltr      CMS
  ------------------------------------------------------------------------------------------------------------------------------
  2707                      25.75       0.00       0.00       1.74       6.44      17.61      24.05        0.02     0.00   0.934
  2708                      25.75       0.00       0.00       1.74       6.44      17.61      24.05        0.02     0.00   0.934
  2709                      25.75       0.00       0.00       1.74       6.44      17.61      24.05        0.02     0.00   0.934
  2710                      25.75       0.00       0.00       1.74       6.44      17.61      24.05        0.02     0.00   0.934
  2712                      25.75       0.00       0.00       1.74       6.44      17.61      24.05        0.02     0.00   0.934
  2713                      25.75       0.00       0.00       1.74       6.44      17.61      24.05        0.02     0.00   0.934
  2714                      25.75       0.00       0.00       1.74       6.44      17.61      24.05        0.02     0.00   0.934
  2715                      25.75       0.00       0.00       1.74       6.44      17.61      24.05        0.02     0.00   0.934
  2716                      25.75       0.00       0.00       1.74       6.44      17.61      24.05        0.02     0.00   0.934
  2717                      25.75       0.00       0.00       1.74       6.44      17.61      24.05        0.02     0.00   0.934
  2718                      25.75       0.00       0.00       1.74       6.44      17.61      24.05        0.02     0.00   0.934
  2719                      25.75       0.00       0.00       1.74       6.44      17.61      24.05        0.02     0.00   0.934
  2721                      25.75       0.00       0.00       1.74       6.44      17.61      24.05        0.02     0.00   0.934
  2722                      25.75       0.00       0.00       1.74       6.44      17.61      24.05        0.02     0.00   0.934
  2723                      25.75       0.00       0.00       1.74       6.44      17.61      24.05        0.02     0.00   0.934
  2724                      25.75       0.00       0.00       1.74       6.44      17.61      24.05        0.02     0.00   0.934
  2725                      25.75       0.00       0.00       1.74       6.44      17.61      24.05        0.02     0.00   0.934
  2726                      25.75       0.00       0.00       1.74       6.44      17.61      24.05        0.02     0.00   0.934
  2727                      25.75       0.00       0.00       1.74       6.44      17.61      24.05        0.02     0.00   0.934
  2728                      25.75       0.00       0.00       1.74       6.44      17.61      24.05        0.02     0.00   0.934
  2729                      25.75       0.00       0.00       1.74       6.44      17.61      24.05        0.02     0.00   0.934
  2730                      25.75       0.00       0.00       1.74       6.44      17.61      24.05        0.02     0.00   0.934
  2731                      25.75       0.00       0.00       1.74       6.44      17.61      24.05        0.02     0.00   0.934
  2732                      25.75       0.00       0.00       1.74       6.44      17.61      24.05        0.02     0.00   0.934
  2733                      25.75       0.00       0.00       1.74       6.44      17.61      24.05        0.02     0.00   0.934
  2734                      25.75       0.00       0.00       1.74       6.44      17.61      24.05        0.02     0.00   0.934
  2735                      25.75       0.00       0.00       1.74       6.44      17.61      24.05        0.02     0.00   0.934
  2736                      25.75       0.00       0.00       1.74       6.44      17.61      24.05        0.02     0.00   0.934
  2737                      25.75       0.00       0.00       1.74       6.44      17.61      24.05        0.02     0.00   0.934
  2738                      25.75       0.00       0.00       1.74       6.44      17.61      24.05        0.02     0.00   0.934
  2739                      25.75       0.00       0.00       1.74       6.44      17.61      24.05        0.02     0.00   0.934
  2740                      25.75       0.00       0.00       1.74       6.44      17.61      24.05        0.02     0.00   0.934
  2741                      25.75       0.00       0.00       1.74       6.44      17.61      24.05        0.02     0.00   0.934
  2742                      25.75       0.00       0.00       1.74       6.44      17.61      24.05        0.02     0.00   0.934
  2743                      25.75       0.00       0.00       1.74       6.44      17.61      24.05        0.02     0.00   0.934
  2744                      25.75       0.00       0.00       1.74       6.44      17.61      24.05        0.02     0.00   0.934
  2745                      25.75       0.00       0.00       1.74       6.44      17.61      24.05        0.02     0.00   0.934
  2746                      25.75       0.00       0.00       1.74       6.44      17.61      24.05        0.02     0.00   0.934
  2747                      25.75       0.00       0.00       1.74       6.44      17.61      24.05        0.02     0.00   0.934
  2748                      25.75       0.00       0.00       1.74       6.44      17.61      24.05        0.02     0.00   0.934
  2749                      25.75       0.00       0.00       1.74       6.44      17.61      24.05        0.02     0.00   0.934
  2750                      25.75       0.00       0.00       1.74       6.44      17.61      24.05        0.02     0.00   0.934
  2751                      25.75       0.00       0.00       1.74       6.44      17.61      24.05        0.02     0.00   0.934
  2752                      25.75       0.00       0.00       1.74       6.44      17.61      24.05        0.02     0.00   0.934
  2753                      25.75       0.00       0.00       1.74       6.44      17.61      24.05        0.02     0.00   0.934
  2754                      25.75       0.00       0.00       1.74       6.44      17.61      24.05        0.02     0.00   0.934
  2755                      25.75       0.00       0.00       1.74       6.44      17.61      24.05        0.02     0.00   0.934
  2756                      25.75       0.00       0.00       1.74       6.44      17.61      24.05        0.02     0.00   0.934
  2964                      25.75       0.00       0.00       1.74       6.44      17.61      24.05        0.02     0.00   0.934
  2969                      25.75       0.00       0.00       1.74       6.44      17.61      24.05        0.02     0.00   0.934
  2970                      25.75       0.00       0.00       1.74       6.44      17.61      24.05        0.02     0.00   0.934
  2974                      25.75       0.00       0.00       1.74       6.44      17.61      24.05        0.02     0.00   0.934
  2975                      25.75       0.00       0.00       1.74       6.44      17.61      24.05        0.02     0.00   0.934
  2976                      25.75       0.00       0.00       1.74       6.44      17.61      24.05        0.02     0.00   0.934
  2977                      25.75       0.00       0.00       1.74       6.44      17.61      24.05        0.02     0.00   0.934
  2978                      25.75       0.00       0.00       1.74       6.44      17.61      24.05        0.02     0.00   0.934
  2979                      25.75       0.00       0.00       1.74       6.44      17.61      24.05        0.02     0.00   0.934
  2980                      25.75       0.00       0.00       1.74       6.44      17.61      24.05        0.02     0.00   0.934
  2981                      25.75       0.00       0.00       1.74       6.44      17.61      24.05        0.02     0.00   0.934
  2982                      25.75       0.00       0.00       1.74       6.44      17.61      24.05        0.02     0.00   0.934
  2984                      25.75       0.00       0.00       1.74       6.44      17.61      24.05        0.02     0.00   0.934
  2985                      25.75       0.00       0.00       1.74       6.44      17.61      24.05        0.02     0.00   0.934
  3925                      25.75       0.00       0.00       1.74       6.44      17.61      24.05        0.02     0.00   0.934
  3926                      25.75       0.00       0.00       1.74       6.44      17.61      24.05        0.02     0.00   0.934
  3927                      25.75       0.00       0.00       1.74       6.44      17.61      24.05        0.02     0.00   0.934
  3928                      25.75       0.00       0.00       1.74       6.44      17.61      24.05        0.02     0.00   0.934
  3929                      25.75       0.00       0.00       1.74       6.44      17.61      24.05        0.02     0.00   0.934
  3930                      25.75       0.00       0.00       1.74       6.44      17.61      24.05        0.02     0.00   0.934
  3931                      25.75       0.00       0.00       1.74       6.44      17.61      24.05        0.02     0.00   0.934
  3932                      25.75       0.00       0.00       1.74       6.44      17.61      24.05        0.02     0.00   0.934
  3933                      25.75       0.00       0.00       1.74       6.44      17.61      24.05        0.02     0.00   0.934
  3934                      25.75       0.00       0.00       1.74       6.44      17.61      24.05        0.02     0.00   0.934
  3935                      25.75       0.00       0.00       1.74       6.44      17.61      24.05        0.02     0.00   0.934
  3936                      25.75       0.00       0.00       1.74       6.44      17.61      24.05        0.02     0.00   0.934
  3937                      25.75       0.00       0.00       1.74       6.44      17.61      24.05        0.02     0.00   0.934
  3938                      25.75       0.00       0.00       1.74       6.44      17.61      24.05        0.02     0.00   0.934
  3939                      25.75       0.00       0.00       1.74       6.44      17.61      24.05        0.02     0.00   0.934
  3940                      25.75       0.00       0.00       1.74       6.44      17.61      24.05        0.02     0.00   0.934
  3941                      25.75       0.00       0.00       1.74       6.44      17.61      24.05        0.02     0.00   0.934
  3942                      25.75       0.00       0.00       1.74       6.44      17.61      24.05        0.02     0.00   0.934
  3943                      25.75       0.00       0.00       1.74       6.44      17.61      24.05        0.02     0.00   0.934
  3944                      25.75       0.00       0.00       1.74       6.44      17.61      24.05        0.02     0.00   0.934
  3945                      25.75       0.00       0.00       1.74       6.44      17.61      24.05        0.02     0.00   0.934
  3946                      25.75       0.00       0.00       1.74       6.44      17.61      24.05        0.02     0.00   0.934
  3947                      25.75       0.00       0.00       1.74       6.44      17.61      24.05        0.02     0.00   0.934
  3948                      25.75       0.00       0.00       1.74       6.44      17.61      24.05        0.02     0.00   0.934
  3949                      25.75       0.00       0.00       1.74       6.44      17.61      24.05        0.02     0.00   0.934
  3950                      25.75       0.00       0.00       1.74       6.44      17.61      24.05        0.02     0.00   0.934
  3951                      25.75       0.00       0.00       1.74       6.44      17.61      24.05        0.02     0.00   0.934
  3952                      25.75       0.00       0.00       1.74       6.44      17.61      24.05        0.02     0.00   0.934
  3953                      25.75       0.00       0.00       1.74       6.44      17.61      24.05        0.02     0.00   0.934
  3954                      25.75       0.00       0.00       1.74       6.44      17.61      24.05        0.02     0.00   0.934
  3955                      25.75       0.00       0.00       1.74       6.44      17.61      24.05        0.02     0.00   0.934
  3956                      25.75       0.00       0.00       1.74       6.44      17.61      24.05        0.02     0.00   0.934
  4032                      25.75       0.00       0.00       1.74       6.44      17.61      24.05        0.02     0.00   0.934
  4033                      25.75       0.00       0.00       1.74       6.44      17.61      24.05        0.02     0.00   0.934
  4041                      25.75       0.00       0.00       1.74       6.44      17.61      24.05        0.02     0.00   0.934
  4051                      25.75       0.00       0.00       1.74       6.44      17.61      24.05        0.02     0.00   0.934
  4055                      25.75       0.00       0.00       1.74       6.44      17.61      24.05        0.02     0.00   0.934
  4056                      25.75       0.00       0.00       1.74       6.44      17.61      24.05        0.02     0.00   0.934
  4058                      25.75       0.00       0.00       1.74       6.44      17.61      24.05        0.02     0.00   0.934
  4385                      25.75       0.00       0.00       1.74       6.44      17.61      24.05        0.02     0.00   0.934
  4386                      25.75       0.00       0.00       1.74       6.44      17.61      24.05        0.02     0.00   0.934
  4387                      25.75       0.00       0.00       1.74       6.44      17.61      24.05        0.02     0.00   0.934
  4388                      25.75       0.00       0.00       1.74       6.44      17.61      24.05        0.02     0.00   0.934
  4389                      25.75       0.00       0.00       1.74       6.44      17.61      24.05        0.02     0.00   0.934
  4390                      25.75       0.00       0.00       1.74       6.44      17.61      24.05        0.02     0.00   0.934
  4391                      25.75       0.00       0.00       1.74       6.44      17.61      24.05        0.02     0.00   0.934
  4392                      25.75       0.00       0.00       1.74       6.44      17.61      24.05        0.02     0.00   0.934
  4393                      25.75       0.00       0.00       1.74       6.44      17.61      24.05        0.02     0.00   0.934
  4394                      25.75       0.00       0.00       1.74       6.44      17.61      24.05        0.02     0.00   0.934
  4395                      25.75       0.00       0.00       1.74       6.44      17.61      24.05        0.02     0.00   0.934
  4396                      25.75       0.00       0.00       1.74       6.44      17.61      24.05        0.02     0.00   0.934
  4397                      25.75       0.00       0.00       1.74       6.44      17.61      24.05        0.02     0.00   0.934
  4398                      25.75       0.00       0.00       1.74       6.44      17.61      24.05        0.02     0.00   0.934
  4429                      25.75       0.00       0.00       1.74       6.44      17.61      24.05        0.02     0.00   0.934
  4430                      25.75       0.00       0.00       1.74       6.44      17.61      24.05        0.02     0.00   0.934
  4431                      25.75       0.00       0.00       1.74       6.44      17.61      24.05        0.02     0.00   0.934
  4432                      25.75       0.00       0.00       1.74       6.44      17.61      24.05        0.02     0.00   0.934
  4433                      25.75       0.00       0.00       1.74       6.44      17.61      24.05        0.02     0.00   0.934
  4434                      25.75       0.00       0.00       1.74       6.44      17.61      24.05        0.02     0.00   0.934
  4435                      25.75       0.00       0.00       1.74       6.44      17.61      24.05        0.02     0.00   0.934
  4436                      25.75       0.00       0.00       1.74       6.44      17.61      24.05        0.02     0.00   0.934
  4437                      25.75       0.00       0.00       1.74       6.44      17.61      24.05        0.02     0.00   0.934
  4438                      25.75       0.00       0.00       1.74       6.44      17.61      24.05        0.02     0.00   0.934
  4439                      25.75       0.00       0.00       1.74       6.44      17.61      24.05        0.02     0.00   0.934
  4440                      25.75       0.00       0.00       1.74       6.44      17.61      24.05        0.02     0.00   0.934
  4441                      25.75       0.00       0.00       1.74       6.44      17.61      24.05        0.02     0.00   0.934
  4442                      25.75       0.00       0.00       1.74       6.44      17.61      24.05        0.02     0.00   0.934
  4443                      25.75       0.00       0.00       1.74       6.44      17.61      24.05        0.02     0.00   0.934
  4444                      25.75       0.00       0.00       1.74       6.44      17.61      24.05        0.02     0.00   0.934
  4445                      25.75       0.00       0.00       1.74       6.44      17.61      24.05        0.02     0.00   0.934
  4446                      25.75       0.00       0.00       1.74       6.44      17.61      24.05        0.02     0.00   0.934
  4447                      25.75       0.00       0.00       1.74       6.44      17.61      24.05        0.02     0.00   0.934
  4448                      25.75       0.00       0.00       1.74       6.44      17.61      24.05        0.02     0.00   0.934
  4449                      25.75       0.00       0.00       1.74       6.44      17.61      24.05        0.02     0.00   0.934
  4450                      25.75       0.00       0.00       1.74       6.44      17.61      24.05        0.02     0.00   0.934
  4451                      25.75       0.00       0.00       1.74       6.44      17.61      24.05        0.02     0.00   0.934
  4452                      25.75       0.00       0.00       1.74       6.44      17.61      24.05        0.02     0.00   0.934
  4453                      25.75       0.00       0.00       1.74       6.44      17.61      24.05        0.02     0.00   0.934
  4454                      25.75       0.00       0.00       1.74       6.44      17.61      24.05        0.02     0.00   0.934
  4462                      25.75       0.00       0.00       1.74       6.44      17.61      24.05        0.02     0.00   0.934
  4463                      25.75       0.00       0.00       1.74       6.44      17.61      24.05        0.02     0.00   0.934
  4563                      25.75       0.00       0.00       1.74       6.44      17.61      24.05        0.02     0.00   0.934
  4564                      25.75       0.00       0.00       1.74       6.44      17.61      24.05        0.02     0.00   0.934
  4565                      25.75       0.00       0.00       1.74       6.44      17.61      24.05        0.02     0.00   0.934
  4566                      25.75       0.00       0.00       1.74       6.44      17.61      24.05        0.02     0.00   0.934
  4567                      25.75       0.00       0.00       1.74       6.44      17.61      24.05        0.02     0.00   0.934
  4568                      25.75       0.00       0.00       1.74       6.44      17.61      24.05        0.02     0.00   0.934
  4569                      25.75       0.00       0.00       1.74       6.44      17.61      24.05        0.02     0.00   0.934
  4570                      25.75       0.00       0.00       1.74       6.44      17.61      24.05        0.02     0.00   0.934
  4571                      25.75       0.00       0.00       1.74       6.44      17.61      24.05        0.02     0.00   0.934
  4572                      25.75       0.00       0.00       1.74       6.44      17.61      24.05        0.02     0.00   0.934
  4573                      25.75       0.00       0.00       1.74       6.44      17.61      24.05        0.02     0.00   0.934
  4574                      25.75       0.00       0.00       1.74       6.44      17.61      24.05        0.02     0.00   0.934
  4575                      25.75       0.00       0.00       1.74       6.44      17.61      24.05        0.02     0.00   0.934
  4576                      25.75       0.00       0.00       1.74       6.44      17.61      24.05        0.02     0.00   0.934
  4577                      25.75       0.00       0.00       1.74       6.44      17.61      24.05        0.02     0.00   0.934
  4578                      25.75       0.00       0.00       1.74       6.44      17.61      24.05        0.02     0.00   0.934
  4579                      25.75       0.00       0.00       1.74       6.44      17.61      24.05        0.02     0.00   0.934
  4580                      25.75       0.00       0.00       1.74       6.44      17.61      24.05        0.02     0.00   0.934
  4581                      25.75       0.00       0.00       1.74       6.44      17.61      24.05        0.02     0.00   0.934
  4624                      25.75       0.00       0.00       1.74       6.44      17.61      24.05        0.02     0.00   0.934
  4625                      25.75       0.00       0.00       1.74       6.44      17.61      24.05        0.02     0.00   0.934
  4644                      25.75       0.00       0.00       1.74       6.44      17.61      24.05        0.02     0.00   0.934
  4645                      25.75       0.00       0.00       1.74       6.44      17.61      24.05        0.02     0.00   0.934
  4646                      25.75       0.00       0.00       1.74       6.44      17.61      24.05        0.02     0.00   0.934
  4679                      25.75       0.00       0.00       1.74       6.44      17.61      24.05        0.02     0.00   0.934
  4680                      25.75       0.00       0.00       1.74       6.44      17.61      24.05        0.02     0.00   0.934
  4681                      25.75       0.00       0.00       1.74       6.44      17.61      24.05        0.02     0.00   0.934
  4682                      25.75       0.00       0.00       1.74       6.44      17.61      24.05        0.02     0.00   0.934
  4683                      25.75       0.00       0.00       1.74       6.44      17.61      24.05        0.02     0.00   0.934
  4711                      25.75       0.00       0.00       1.74       6.44      17.61      24.05        0.02     0.00   0.934
  4712                      25.75       0.00       0.00       1.74       6.44      17.61      24.05        0.02     0.00   0.934
  4713                      25.75       0.00       0.00       1.74       6.44      17.61      24.05        0.02     0.00   0.934
  4714                      25.75       0.00       0.00       1.74       6.44      17.61      24.05        0.02     0.00   0.934
  4715                      25.75       0.00       0.00       1.74       6.44      17.61      24.05        0.02     0.00   0.934
  4716                      25.75       0.00       0.00       1.74       6.44      17.61      24.05        0.02     0.00   0.934
  4717                      25.75       0.00       0.00       1.74       6.44      17.61      24.05        0.02     0.00   0.934
  4718                      25.75       0.00       0.00       1.74       6.44      17.61      24.05        0.02     0.00   0.934
  4722                      25.75       0.00       0.00       1.74       6.44      17.61      24.05        0.02     0.00   0.934
  4760                      25.75       0.00       0.00       1.74       6.44      17.61      24.05        0.02     0.00   0.934
  4761                      25.75       0.00       0.00       1.74       6.44      17.61      24.05        0.02     0.00   0.934
  4765                      25.75       0.00       0.00       1.74       6.44      17.61      24.05        0.02     0.00   0.934
  4766                      25.75       0.00       0.00       1.74       6.44      17.61      24.05        0.02     0.00   0.934
  4767                      25.75       0.00       0.00       1.74       6.44      17.61      24.05        0.02     0.00   0.934
  4768                      25.75       0.00       0.00       1.74       6.44      17.61      24.05        0.02     0.00   0.934
  4769                      25.75       0.00       0.00       1.74       6.44      17.61      24.05        0.02     0.00   0.934
  4855                      25.75       0.00       0.00       1.74       6.44      17.61      24.05        0.02     0.00   0.934
  4856                      25.75       0.00       0.00       1.74       6.44      17.61      24.05        0.02     0.00   0.934
  5284                      25.75       0.00       0.00       1.74       6.44      17.61      24.05        0.02     0.00   0.934
  5285                      25.75       0.00       0.00       1.74       6.44      17.61      24.05        0.02     0.00   0.934
  5286                      25.75       0.00       0.00       1.74       6.44      17.61      24.05        0.02     0.00   0.934
  5287                      25.75       0.00       0.00       1.74       6.44      17.61      24.05        0.02     0.00   0.934
  5288                      25.75       0.00       0.00       1.74       6.44      17.61      24.05        0.02     0.00   0.934
  5289                      25.75       0.00       0.00       1.74       6.44      17.61      24.05        0.02     0.00   0.934
  5290                      25.75       0.00       0.00       1.74       6.44      17.61      24.05        0.02     0.00   0.934
  5291                      25.75       0.00       0.00       1.74       6.44      17.61      24.05        0.02     0.00   0.934
  5292                      25.75       0.00       0.00       1.74       6.44      17.61      24.05        0.02     0.00   0.934
  5293                      25.75       0.00       0.00       1.74       6.44      17.61      24.05        0.02     0.00   0.934
  5294                      25.75       0.00       0.00       1.74       6.44      17.61      24.05        0.02     0.00   0.934
  5295                      25.75       0.00       0.00       1.74       6.44      17.61      24.05        0.02     0.00   0.934
  5296                      25.75       0.00       0.00       1.74       6.44      17.61      24.05        0.02     0.00   0.934
  5297                      25.75       0.00       0.00       1.74       6.44      17.61      24.05        0.02     0.00   0.934
  5298                      25.75       0.00       0.00       1.74       6.44      17.61      24.05        0.02     0.00   0.934
  5299                      25.75       0.00       0.00       1.74       6.44      17.61      24.05        0.02     0.00   0.934
  5300                      25.75       0.00       0.00       1.74       6.44      17.61      24.05        0.02     0.00   0.934
  5301                      25.75       0.00       0.00       1.74       6.44      17.61      24.05        0.02     0.00   0.934
  5302                      25.75       0.00       0.00       1.74       6.44      17.61      24.05        0.02     0.00   0.934
  5303                      25.75       0.00       0.00       1.74       6.44      17.61      24.05        0.02     0.00   0.934
  5304                      25.75       0.00       0.00       1.74       6.44      17.61      24.05        0.02     0.00   0.934
  5305                      25.75       0.00       0.00       1.74       6.44      17.61      24.05        0.02     0.00   0.934
  5306                      25.75       0.00       0.00       1.74       6.44      17.61      24.05        0.02     0.00   0.934
  5307                      25.75       0.00       0.00       1.74       6.44      17.61      24.05        0.02     0.00   0.934
  5308                      25.75       0.00       0.00       1.74       6.44      17.61      24.05        0.02     0.00   0.934
  5309                      25.75       0.00       0.00       1.74       6.44      17.61      24.05        0.02     0.00   0.934
  5310                      25.75       0.00       0.00       1.74       6.44      17.61      24.05        0.02     0.00   0.934
  5311                      25.75       0.00       0.00       1.74       6.44      17.61      24.05        0.02     0.00   0.934
  5312                      25.75       0.00       0.00       1.74       6.44      17.61      24.05        0.02     0.00   0.934
  5313                      25.75       0.00       0.00       1.74       6.44      17.61      24.05        0.02     0.00   0.934
  5314                      25.75       0.00       0.00       1.74       6.44      17.61      24.05        0.02     0.00   0.934
  5315                      25.75       0.00       0.00       1.74       6.44      17.61      24.05        0.02     0.00   0.934
  5316                      25.75       0.00       0.00       1.74       6.44      17.61      24.05        0.02     0.00   0.934
  5317                      25.75       0.00       0.00       1.74       6.44      17.61      24.05        0.02     0.00   0.934
  5318                      25.75       0.00       0.00       1.74       6.44      17.61      24.05        0.02     0.00   0.934
  5319                      25.75       0.00       0.00       1.74       6.44      17.61      24.05        0.02     0.00   0.934
  5320                      25.75       0.00       0.00       1.74       6.44      17.61      24.05        0.02     0.00   0.934
  5321                      25.75       0.00       0.00       1.74       6.44      17.61      24.05        0.02     0.00   0.934
  5322                      25.75       0.00       0.00       1.74       6.44      17.61      24.05        0.02     0.00   0.934
  5323                      25.75       0.00       0.00       1.74       6.44      17.61      24.05        0.02     0.00   0.934
  5324                      25.75       0.00       0.00       1.74       6.44      17.61      24.05        0.02     0.00   0.934
  5325                      25.75       0.00       0.00       1.74       6.44      17.61      24.05        0.02     0.00   0.934
  5326                      25.75       0.00       0.00       1.74       6.44      17.61      24.05        0.02     0.00   0.934
  5327                      25.75       0.00       0.00       1.74       6.44      17.61      24.05        0.02     0.00   0.934
  5328                      25.75       0.00       0.00       1.74       6.44      17.61      24.05        0.02     0.00   0.934
  5329                      25.75       0.00       0.00       1.74       6.44      17.61      24.05        0.02     0.00   0.934
  5330                      25.75       0.00       0.00       1.74       6.44      17.61      24.05        0.02     0.00   0.934
  5333                      25.75       0.00       0.00       1.74       6.44      17.61      24.05        0.02     0.00   0.934
  5334                      25.75       0.00       0.00       1.74       6.44      17.61      24.05        0.02     0.00   0.934
  6040                      25.75       0.00       0.00       1.74       6.44      17.61      24.05        0.02     0.00   0.934
  6041                      25.75       0.00       0.00       1.74       6.44      17.61      24.05        0.02     0.00   0.934
  6162                      25.75       0.00       0.00       1.74       6.44      17.61      24.05        0.02     0.00   0.934
  7207                      25.75       0.00       0.00       1.74       6.44      17.61      24.05        0.02     0.00   0.934
  7208                      25.75       0.00       0.00       1.74       6.44      17.61      24.05        0.02     0.00   0.934
  7213                      25.75       0.00       0.00       1.74       6.44      17.61      24.05        0.02     0.00   0.934
  7214                      25.75       0.00       0.00       1.74       6.44      17.61      24.05        0.02     0.00   0.934
  7219                      25.75       0.00       0.00       1.74       6.44      17.61      24.05        0.02     0.00   0.934
  7220                      25.75       0.00       0.00       1.74       6.44      17.61      24.05        0.02     0.00   0.934
  7221                      25.75       0.00       0.00       1.74       6.44      17.61      24.05        0.02     0.00   0.934
  7225                      25.75       0.00       0.00       1.74       6.44      17.61      24.05        0.02     0.00   0.934
  7229                      25.75       0.00       0.00       1.74       6.44      17.61      24.05        0.02     0.00   0.934
  7231                      25.75       0.00       0.00       1.74       6.44      17.61      24.05        0.02     0.00   0.934
  7268                      25.75       0.00       0.00       1.74       6.44      17.61      24.05        0.02     0.00   0.934
  7269                      25.75       0.00       0.00       1.74       6.44      17.61      24.05        0.02     0.00   0.934
  7271                      25.75       0.00       0.00       1.74       6.44      17.61      24.05        0.02     0.00   0.934
  7272                      25.75       0.00       0.00       1.74       6.44      17.61      24.05        0.02     0.00   0.934
  7273                      25.75       0.00       0.00       1.74       6.44      17.61      24.05        0.02     0.00   0.934
  7433                      25.75       0.00       0.00       1.74       6.44      17.61      24.05        0.02     0.00   0.934
  7434                      25.75       0.00       0.00       1.74       6.44      17.61      24.05        0.02     0.00   0.934
  7544                      25.75       0.00       0.00       1.74       6.44      17.61      24.05        0.02     0.00   0.934
  7545                      25.75       0.00       0.00       1.74       6.44      17.61      24.05        0.02     0.00   0.934
  8737                      25.75       0.00       0.00       1.74       6.44      17.61      24.05        0.02     0.00   0.934
  8818                      25.75       0.00       0.00       1.74       6.44      17.61      24.05        0.02     0.00   0.934
  9942                      25.75       0.00       0.00       1.74       6.44      17.61      24.05        0.02     0.00   0.934
  9957                      25.75       0.00       0.00       1.74       6.44      17.61      24.05        0.02     0.00   0.934
  4399                      25.75       0.00       0.00       1.68       6.44      17.66      24.10        0.01     0.00   0.936
  4400                      25.75       0.00       0.00       1.68       6.44      17.66      24.10        0.01     0.00   0.936
  4401                      25.75       0.00       0.00       1.68       6.44      17.66      24.10        0.01     0.00   0.936
  4402                      25.75       0.00       0.00       1.68       6.44      17.66      24.10        0.01     0.00   0.936
  4403                      25.75       0.00       0.00       1.68       6.44      17.66      24.10        0.01     0.00   0.936
  4404                      25.75       0.00       0.00       1.68       6.44      17.66      24.10        0.01     0.00   0.936
  4405                      25.75       0.00       0.00       1.68       6.44      17.66      24.10        0.01     0.00   0.936
  4406                      25.75       0.00       0.00       1.68       6.44      17.66      24.10        0.01     0.00   0.936
  4407                      25.75       0.00       0.00       1.68       6.44      17.66      24.10        0.01     0.00   0.936
  4408                      25.75       0.00       0.00       1.68       6.44      17.66      24.10        0.01     0.00   0.936
  4409                      25.75       0.00       0.00       1.68       6.44      17.66      24.10        0.01     0.00   0.936
  4410                      25.75       0.00       0.00       1.68       6.44      17.66      24.10        0.01     0.00   0.936
  4411                      25.75       0.00       0.00       1.68       6.44      17.66      24.10        0.01     0.00   0.936
  4412                      25.75       0.00       0.00       1.68       6.44      17.66      24.10        0.01     0.00   0.936
  4423                      25.75       0.00       0.00       1.68       6.44      17.66      24.10        0.01     0.00   0.936
  4424                      25.75       0.00       0.00       1.68       6.44      17.66      24.10        0.01     0.00   0.936
  4425                      25.75       0.00       0.00       1.68       6.44      17.66      24.10        0.01     0.00   0.936
  4426                      25.75       0.00       0.00       1.68       6.44      17.66      24.10        0.01     0.00   0.936
  4427                      25.75       0.00       0.00       1.68       6.44      17.66      24.10        0.01     0.00   0.936
  4428                      25.75       0.00       0.00       1.68       6.44      17.66      24.10        0.01     0.00   0.936
  4455                      25.75       0.00       0.00       1.68       6.44      17.66      24.10        0.01     0.00   0.936
  4456                      25.75       0.00       0.00       1.68       6.44      17.66      24.10        0.01     0.00   0.936
  4457                      25.75       0.00       0.00       1.68       6.44      17.66      24.10        0.01     0.00   0.936
  4458                      25.75       0.00       0.00       1.68       6.44      17.66      24.10        0.01     0.00   0.936
  4459                      25.75       0.00       0.00       1.68       6.44      17.66      24.10        0.01     0.00   0.936
  4460                      25.75       0.00       0.00       1.68       6.44      17.66      24.10        0.01     0.00   0.936
  4461                      25.75       0.00       0.00       1.68       6.44      17.66      24.10        0.01     0.00   0.936
  4464                      25.75       0.00       0.00       1.68       6.44      17.66      24.10        0.01     0.00   0.936
  4465                      25.75       0.00       0.00       1.68       6.44      17.66      24.10        0.01     0.00   0.936
  4466                      25.75       0.00       0.00       1.68       6.44      17.66      24.10        0.01     0.00   0.936
  4467                      25.75       0.00       0.00       1.68       6.44      17.66      24.10        0.01     0.00   0.936
  4468                      25.75       0.00       0.00       1.68       6.44      17.66      24.10        0.01     0.00   0.936
  4469                      25.75       0.00       0.00       1.68       6.44      17.66      24.10        0.01     0.00   0.936
  4470                      25.75       0.00       0.00       1.68       6.44      17.66      24.10        0.01     0.00   0.936
  4471                      25.75       0.00       0.00       1.68       6.44      17.66      24.10        0.01     0.00   0.936
  4472                      25.75       0.00       0.00       1.68       6.44      17.66      24.10        0.01     0.00   0.936
  4473                      25.75       0.00       0.00       1.68       6.44      17.66      24.10        0.01     0.00   0.936
  4474                      25.75       0.00       0.00       1.68       6.44      17.66      24.10        0.01     0.00   0.936
  4628                      25.75       0.00       0.00       1.68       6.44      17.66      24.10        0.01     0.00   0.936
  4631                      25.75       0.00       0.00       1.68       6.44      17.66      24.10        0.01     0.00   0.936
  4632                      25.75       0.00       0.00       1.68       6.44      17.66      24.10        0.01     0.00   0.936
  4633                      25.75       0.00       0.00       1.68       6.44      17.66      24.10        0.01     0.00   0.936
  4634                      25.75       0.00       0.00       1.68       6.44      17.66      24.10        0.01     0.00   0.936
  4637                      25.75       0.00       0.00       1.68       6.44      17.66      24.10        0.01     0.00   0.936
  4686                      25.75       0.00       0.00       1.68       6.44      17.66      24.10        0.01     0.00   0.936
  4687                      25.75       0.00       0.00       1.68       6.44      17.66      24.10        0.01     0.00   0.936
  4688                      25.75       0.00       0.00       1.68       6.44      17.66      24.10        0.01     0.00   0.936
  5032                      25.75       0.00       0.00       1.68       6.44      17.66      24.10        0.01     0.00   0.936
  5331                      25.75       0.00       0.00       1.68       6.44      17.66      24.10        0.01     0.00   0.936
  5332                      25.75       0.00       0.00       1.68       6.44      17.66      24.10        0.01     0.00   0.936
  5335                      25.75       0.00       0.00       1.68       6.44      17.66      24.10        0.01     0.00   0.936
  5336                      25.75       0.00       0.00       1.68       6.44      17.66      24.10        0.01     0.00   0.936
  5337                      25.75       0.00       0.00       1.68       6.44      17.66      24.10        0.01     0.00   0.936
  5338                      25.75       0.00       0.00       1.68       6.44      17.66      24.10        0.01     0.00   0.936
  5339                      25.75       0.00       0.00       1.68       6.44      17.66      24.10        0.01     0.00   0.936
  5340                      25.75       0.00       0.00       1.68       6.44      17.66      24.10        0.01     0.00   0.936
  5341                      25.75       0.00       0.00       1.68       6.44      17.66      24.10        0.01     0.00   0.936
  5342                      25.75       0.00       0.00       1.68       6.44      17.66      24.10        0.01     0.00   0.936
  5343                      25.75       0.00       0.00       1.68       6.44      17.66      24.10        0.01     0.00   0.936
  5344                      25.75       0.00       0.00       1.68       6.44      17.66      24.10        0.01     0.00   0.936
  5345                      25.75       0.00       0.00       1.68       6.44      17.66      24.10        0.01     0.00   0.936
  5346                      25.75       0.00       0.00       1.68       6.44      17.66      24.10        0.01     0.00   0.936
  5347                      25.75       0.00       0.00       1.68       6.44      17.66      24.10        0.01     0.00   0.936
  5348                      25.75       0.00       0.00       1.68       6.44      17.66      24.10        0.01     0.00   0.936
  5349                      25.75       0.00       0.00       1.68       6.44      17.66      24.10        0.01     0.00   0.936
  5350                      25.75       0.00       0.00       1.68       6.44      17.66      24.10        0.01     0.00   0.936
  6088                      25.75       0.00       0.00       1.68       6.44      17.66      24.10        0.01     0.00   0.936
  7275                      25.75       0.00       0.00       1.68       6.44      17.66      24.10        0.01     0.00   0.936
  9955                      25.75       0.00       0.00       1.68       6.44      17.66      24.10        0.01     0.00   0.936
  9956                      25.75       0.00       0.00       1.68       6.44      17.66      24.10        0.01     0.00   0.936
  
  
  ****************************
  Subcatchment Washoff Summary
  ****************************
  
  ----------------------------------
                                 COD
  Subcatchment                    kg
  ----------------------------------
  2707                         6.325
  2708                         6.325
  2709                         6.325
  2710                         6.325
  2712                         6.325
  2713                         6.325
  2714                         6.325
  2715                         6.325
  2716                         6.325
  2717                         6.325
  2718                         6.325
  2719                         6.325
  2721                         6.325
  2722                         6.325
  2723                         6.325
  2724                         6.325
  2725                         6.325
  2726                         6.325
  2727                         6.325
  2728                         6.325
  2729                         6.325
  2730                         6.325
  2731                         6.325
  2732                         6.325
  2733                         6.325
  2734                         6.325
  2735                         6.325
  2736                         6.325
  2737                         6.325
  2738                         6.325
  2739                         6.325
  2740                         6.325
  2741                         6.325
  2742                         6.325
  2743                         6.325
  2744                         6.325
  2745                         6.325
  2746                         6.325
  2747                         6.325
  2748                         6.325
  2749                         6.325
  2750                         6.325
  2751                         6.325
  2752                         6.325
  2753                         6.325
  2754                         6.325
  2755                         6.325
  2756                         6.325
  2964                         6.325
  2969                         6.325
  2970                         6.325
  2974                         6.325
  2975                         6.325
  2976                         6.325
  2977                         6.325
  2978                         6.325
  2979                         6.325
  2980                         6.325
  2981                         6.325
  2982                         6.325
  2984                         6.325
  2985                         6.325
  3925                         6.325
  3926                         6.325
  3927                         6.325
  3928                         6.325
  3929                         6.325
  3930                         6.325
  3931                         6.325
  3932                         6.325
  3933                         6.325
  3934                         6.325
  3935                         6.325
  3936                         6.325
  3937                         6.325
  3938                         6.325
  3939                         6.325
  3940                         6.325
  3941                         6.325
  3942                         6.325
  3943                         6.325
  3944                         6.325
  3945                         6.325
  3946                         6.325
  3947                         6.325
  3948                         6.325
  3949                         6.325
  3950                         6.325
  3951                         6.325
  3952                         6.325
  3953                         6.325
  3954                         6.325
  3955                         6.325
  3956                         6.325
  4032                         6.325
  4033                         6.325
  4041                         6.325
  4051                         6.325
  4055                         6.325
  4056                         6.325
  4058                         6.325
  4385                         6.325
  4386                         6.325
  4387                         6.325
  4388                         6.325
  4389                         6.325
  4390                         6.325
  4391                         6.325
  4392                         6.325
  4393                         6.325
  4394                         6.325
  4395                         6.325
  4396                         6.325
  4397                         6.325
  4398                         6.325
  4429                         6.325
  4430                         6.325
  4431                         6.325
  4432                         6.325
  4433                         6.325
  4434                         6.325
  4435                         6.325
  4436                         6.325
  4437                         6.325
  4438                         6.325
  4439                         6.325
  4440                         6.325
  4441                         6.325
  4442                         6.325
  4443                         6.325
  4444                         6.325
  4445                         6.325
  4446                         6.325
  4447                         6.325
  4448                         6.325
  4449                         6.325
  4450                         6.325
  4451                         6.325
  4452                         6.325
  4453                         6.325
  4454                         6.325
  4462                         6.325
  4463                         6.325
  4563                         6.325
  4564                         6.325
  4565                         6.325
  4566                         6.325
  4567                         6.325
  4568                         6.325
  4569                         6.325
  4570                         6.325
  4571                         6.325
  4572                         6.325
  4573                         6.325
  4574                         6.325
  4575                         6.325
  4576                         6.325
  4577                         6.325
  4578                         6.325
  4579                         6.325
  4580                         6.325
  4581                         6.325
  4624                         6.325
  4625                         6.325
  4644                         6.325
  4645                         6.325
  4646                         6.325
  4679                         6.325
  4680                         6.325
  4681                         6.325
  4682                         6.325
  4683                         6.325
  4711                         6.325
  4712                         6.325
  4713                         6.325
  4714                         6.325
  4715                         6.325
  4716                         6.325
  4717                         6.325
  4718                         6.325
  4722                         6.325
  4760                         6.325
  4761                         6.325
  4765                         6.325
  4766                         6.325
  4767                         6.325
  4768                         6.325
  4769                         6.325
  4855                         6.325
  4856                         6.325
  5284                         6.325
  5285                         6.325
  5286                         6.325
  5287                         6.325
  5288                         6.325
  5289                         6.325
  5290                         6.325
  5291                         6.325
  5292                         6.325
  5293                         6.325
  5294                         6.325
  5295                         6.325
  5296                         6.325
  5297                         6.325
  5298                         6.325
  5299                         6.325
  5300                         6.325
  5301                         6.325
  5302                         6.325
  5303                         6.325
  5304                         6.325
  5305                         6.325
  5306                         6.325
  5307                         6.325
  5308                         6.325
  5309                         6.325
  5310                         6.325
  5311                         6.325
  5312                         6.325
  5313                         6.325
  5314                         6.325
  5315                         6.325
  5316                         6.325
  5317                         6.325
  5318                         6.325
  5319                         6.325
  5320                         6.325
  5321                         6.325
  5322                         6.325
  5323                         6.325
  5324                         6.325
  5325                         6.325
  5326                         6.325
  5327                         6.325
  5328                         6.325
  5329                         6.325
  5330                         6.325
  5333                         6.325
  5334                         6.325
  6040                         6.325
  6041                         6.325
  6162                         6.325
  7207                         6.325
  7208                         6.325
  7213                         6.325
  7214                         6.325
  7219                         6.325
  7220                         6.325
  7221                         6.325
  7225                         6.325
  7229                         6.325
  7231                         6.325
  7268                         6.325
  7269                         6.325
  7271                         6.325
  7272                         6.325
  7273                         6.325
  7433                         6.325
  7434                         6.325
  7544                         6.325
  7545                         6.325
  8737                         6.325
  8818                         6.325
  9942                         6.325
  9957                         6.325
  4399                         1.902
  4400                         1.902
  4401                         1.902
  4402                         1.902
  4403                         1.902
  4404                         1.902
  4405                         1.902
  4406                         1.902
  4407                         1.902
  4408                         1.902
  4409                         1.902
  4410                         1.902
  4411                         1.902
  4412                         1.902
  4423                         1.902
  4424                         1.902
  4425                         1.902
  4426                         1.902
  4427                         1.902
  4428                         1.902
  4455                         1.902
  4456                         1.902
  4457                         1.902
  4458                         1.902
  4459                         1.902
  4460                         1.902
  4461                         1.902
  4464                         1.902
  4465                         1.902
  4466                         1.902
  4467                         1.902
  4468                         1.902
  4469                         1.902
  4470                         1.902
  4471                         1.902
  4472                         1.902
  4473                         1.902
  4474                         1.902
  4628                         1.902
  4631                         1.902
  4632                         1.902
  4633                         1.902
  4634                         1.902
  4637                         1.902
  4686                         1.902
  4687                         1.902
  4688                         1.902
  5032                         1.902
  5331                         1.902
  5332                         1.902
  5335                         1.902
  5336                         1.902
  5337                         1.902
  5338                         1.902
  5339                         1.902
  5340                         1.902
  5341                         1.902
  5342                         1.902
  5343                         1.902
  5344                         1.902
  5345                         1.902
  5346                         1.902
  5347                         1.902
  5348                         1.902
  5349                         1.902
  5350                         1.902
  6088                         1.902
  7275                         1.902
  9955                         1.902
  9956                         1.902
  ----------------------------------
  System                    1809.249
  
  
  ******************
  Node Depth Summary
  ******************
  
  ---------------------------------------------------------------------------------
                                 Average  Maximum  Maximum  Time of Max    Reported
                                   Depth    Depth      HGL   Occurrence   Max Depth
  Node                 Type       Meters   Meters   Meters  days hr:min      Meters
  ---------------------------------------------------------------------------------
<<<<<<< HEAD
  Node_02706           JUNCTION     1.79     2.80    99.64     0  03:18        0.00
  Node_02707           JUNCTION     0.24     0.49    99.92     0  03:20        0.00
=======
<<<<<<< HEAD
  Node_02706           JUNCTION     1.79     2.83    99.67     0  03:18        0.00
  Node_02707           JUNCTION     0.24     0.52    99.95     0  03:19        0.00
>>>>>>> ebd46bdc835ac17077bb70c3b6f6db3a4ee81ecd
  Node_02708           JUNCTION     0.36     0.39   100.15     0  03:00        0.00
  Node_02709           JUNCTION     0.42     0.44   100.07     0  03:00        0.00
  Node_02711           JUNCTION     0.06     0.13   100.04     0  03:00        0.00
  Node_02712           JUNCTION     0.06     0.14   100.04     0  03:00        0.00
  Node_02713           JUNCTION     0.10     0.18   100.03     0  03:00        0.00
  Node_02714           JUNCTION     0.02     0.03   100.43     0  03:00        0.00
<<<<<<< HEAD
  Node_02715           JUNCTION     0.07     0.15    99.96     0  03:00        0.00
  Node_02716           JUNCTION     0.07     0.22    99.94     0  03:21        0.00
  Node_02717           JUNCTION     0.10     0.30    99.93     0  03:20        0.00
  Node_02718           JUNCTION     0.09     0.33    99.93     0  03:20        0.00
  Node_02720           JUNCTION     0.10     0.36    99.92     0  03:20        0.00
  Node_02721           JUNCTION     0.38     0.68    99.92     0  03:20        0.00
  Node_02722           JUNCTION     0.13     0.16   101.96     0  03:00        0.00
  Node_02723           JUNCTION     0.30     0.62    99.92     0  03:20        0.00
  Node_02724           JUNCTION     0.13     0.50    99.92     0  03:19        0.00
  Node_02725           JUNCTION     0.14     0.54    99.91     0  03:19        0.00
  Node_02726           JUNCTION     0.19     0.65    99.91     0  03:18        0.00
  Node_02727           JUNCTION     0.27     0.78    99.90     0  03:19        0.00
  Node_02728           JUNCTION     0.05     0.07   100.15     0  03:00        0.00
  Node_02729           JUNCTION     0.29     0.85    99.91     0  03:18        0.00
  Node_02730           JUNCTION     0.30     0.88    99.90     0  03:19        0.00
  Node_02731           JUNCTION     0.70     1.31    99.90     0  03:18        0.00
  Node_02732           JUNCTION     0.27     0.87    99.89     0  03:18        0.00
  Node_02733           JUNCTION     0.26     0.89    99.90     0  03:18        0.00
  Node_02734           JUNCTION     0.54     1.18    99.89     0  03:17        0.00
  Node_02735           JUNCTION     0.44     1.09    99.90     0  03:18        0.00
  Node_02736           JUNCTION     0.62     1.28    99.89     0  03:18        0.00
  Node_02737           JUNCTION     0.60     1.26    99.88     0  03:18        0.00
  Node_02738           JUNCTION     0.43     1.10    99.87     0  03:18        0.00
  Node_02739           JUNCTION     0.30     0.99    99.86     0  03:17        0.00
  Node_02740           JUNCTION     0.30     1.02    99.86     0  03:17        0.00
  Node_02741           JUNCTION     0.11     0.56    99.86     0  03:17        0.00
  Node_02742           JUNCTION     0.31     1.04    99.85     0  03:18        0.00
  Node_02743           JUNCTION     0.73     1.45    99.82     0  03:17        0.00
  Node_02744           JUNCTION     0.10     0.48    99.83     0  03:17        0.00
  Node_02745           JUNCTION     0.45     1.20    99.82     0  03:17        0.00
  Node_02746           JUNCTION     0.34     1.09    99.79     0  03:17        0.00
  Node_02747           JUNCTION     0.05     0.08   100.43     0  03:00        0.00
  Node_02748           JUNCTION     0.03     0.05   100.50     0  03:00        0.00
  Node_02749           JUNCTION     0.35     1.13    99.77     0  03:17        0.00
  Node_02750           JUNCTION     0.36     1.13    99.74     0  03:18        0.00
  Node_02751           JUNCTION     0.33     1.11    99.71     0  03:18        0.00
  Node_02752           JUNCTION     0.32     1.14    99.69     0  03:18        0.00
  Node_02753           JUNCTION     0.34     1.18    99.66     0  03:18        0.00
  Node_02754           JUNCTION     0.31     1.32    99.63     0  03:17        0.00
  Node_02755           JUNCTION     1.24     2.24    99.63     0  03:18        0.00
  Node_02963           JUNCTION     0.06     0.10   100.01     0  03:00        0.00
  Node_02968           JUNCTION     0.06     0.09   100.21     0  03:00        0.00
  Node_02969           JUNCTION     0.07     0.10    99.98     0  00:00        0.00
  Node_02973           JUNCTION     0.79     1.75    99.64     0  03:18        0.00
  Node_02974           JUNCTION     0.66     1.91    99.04     0  03:27        0.00
  Node_02975           JUNCTION     0.66     1.92    99.06     0  03:28        0.00
  Node_02976           JUNCTION     0.72     2.09    99.28     0  03:26        0.00
  Node_02977           JUNCTION     0.77     2.37    99.70     0  03:17        0.00
  Node_02978           JUNCTION     0.73     2.39    99.92     0  03:16        0.00
  Node_02979           JUNCTION     0.58     1.78    98.90     0  03:27        0.00
  Node_02980           JUNCTION     0.48     1.63    98.72     0  03:31        0.00
  Node_02981           JUNCTION     0.43     1.59    98.54     0  03:31        0.00
  Node_02983           JUNCTION     0.04     0.05   100.17     0  03:00        0.00
  Node_02984           JUNCTION     1.10     2.65    99.63     0  03:18        0.00
  Node_03924           JUNCTION     0.02     0.03   100.86     0  02:39        0.00
=======
  Node_02715           JUNCTION     0.07     0.17    99.97     0  03:21        0.00
  Node_02716           JUNCTION     0.08     0.24    99.96     0  03:21        0.00
  Node_02717           JUNCTION     0.11     0.32    99.96     0  03:20        0.00
  Node_02718           JUNCTION     0.10     0.35    99.95     0  03:20        0.00
  Node_02720           JUNCTION     0.10     0.39    99.95     0  03:20        0.00
  Node_02721           JUNCTION     0.38     0.70    99.95     0  03:20        0.00
  Node_02722           JUNCTION     0.13     0.16   101.96     0  03:00        0.00
  Node_02723           JUNCTION     0.30     0.65    99.95     0  03:19        0.00
  Node_02724           JUNCTION     0.14     0.53    99.95     0  03:19        0.00
  Node_02725           JUNCTION     0.15     0.57    99.94     0  03:19        0.00
  Node_02726           JUNCTION     0.20     0.68    99.94     0  03:19        0.00
  Node_02727           JUNCTION     0.27     0.81    99.93     0  03:19        0.00
  Node_02728           JUNCTION     0.05     0.07   100.15     0  03:00        0.00
  Node_02729           JUNCTION     0.30     0.88    99.94     0  03:19        0.00
  Node_02730           JUNCTION     0.30     0.91    99.93     0  03:18        0.00
  Node_02731           JUNCTION     0.71     1.34    99.93     0  03:18        0.00
  Node_02732           JUNCTION     0.27     0.90    99.92     0  03:18        0.00
  Node_02733           JUNCTION     0.26     0.92    99.93     0  03:17        0.00
  Node_02734           JUNCTION     0.54     1.21    99.92     0  03:18        0.00
  Node_02735           JUNCTION     0.44     1.12    99.93     0  03:17        0.00
  Node_02736           JUNCTION     0.63     1.31    99.92     0  03:18        0.00
  Node_02737           JUNCTION     0.60     1.29    99.91     0  03:18        0.00
  Node_02738           JUNCTION     0.43     1.13    99.90     0  03:17        0.00
  Node_02739           JUNCTION     0.30     1.02    99.89     0  03:17        0.00
  Node_02740           JUNCTION     0.31     1.05    99.89     0  03:17        0.00
  Node_02741           JUNCTION     0.11     0.59    99.89     0  03:17        0.00
  Node_02742           JUNCTION     0.31     1.07    99.88     0  03:17        0.00
  Node_02743           JUNCTION     0.73     1.48    99.85     0  03:17        0.00
  Node_02744           JUNCTION     0.10     0.52    99.86     0  03:17        0.00
  Node_02745           JUNCTION     0.45     1.23    99.85     0  03:17        0.00
  Node_02746           JUNCTION     0.35     1.13    99.82     0  03:17        0.00
  Node_02747           JUNCTION     0.05     0.08   100.43     0  03:00        0.00
  Node_02748           JUNCTION     0.03     0.05   100.50     0  03:00        0.00
  Node_02749           JUNCTION     0.36     1.16    99.80     0  03:17        0.00
  Node_02750           JUNCTION     0.36     1.17    99.77     0  03:18        0.00
  Node_02751           JUNCTION     0.33     1.16    99.75     0  03:17        0.00
  Node_02752           JUNCTION     0.32     1.18    99.72     0  03:16        0.00
  Node_02753           JUNCTION     0.34     1.22    99.70     0  03:18        0.00
  Node_02754           JUNCTION     0.31     1.36    99.67     0  03:18        0.00
  Node_02755           JUNCTION     1.23     2.28    99.67     0  03:18        0.00
  Node_02963           JUNCTION     0.06     0.10   100.01     0  03:00        0.00
  Node_02968           JUNCTION     0.06     0.09   100.21     0  03:00        0.00
  Node_02969           JUNCTION     0.07     0.10    99.98     0  00:00        0.00
  Node_02973           JUNCTION     0.78     1.79    99.68     0  03:17        0.00
  Node_02974           JUNCTION     0.66     1.95    99.08     0  03:29        0.00
  Node_02975           JUNCTION     0.67     1.97    99.10     0  03:28        0.00
  Node_02976           JUNCTION     0.73     2.14    99.33     0  03:24        0.00
  Node_02977           JUNCTION     0.77     2.40    99.74     0  03:17        0.00
  Node_02978           JUNCTION     0.73     2.43    99.96     0  03:16        0.00
  Node_02979           JUNCTION     0.59     1.83    98.94     0  03:28        0.00
  Node_02980           JUNCTION     0.49     1.68    98.76     0  03:29        0.00
  Node_02981           JUNCTION     0.44     1.64    98.59     0  03:31        0.00
  Node_02983           JUNCTION     0.04     0.05   100.17     0  03:00        0.00
  Node_02984           JUNCTION     1.10     2.69    99.67     0  03:18        0.00
  Node_03924           JUNCTION     0.02     0.03   100.86     0  02:39        0.00
=======
  Node_02706           JUNCTION     1.80     2.96    99.80     0  03:17        0.00
  Node_02707           JUNCTION     0.25     0.59   100.02     0  03:21        0.00
  Node_02708           JUNCTION     0.36     0.39   100.15     0  03:00        0.00
  Node_02709           JUNCTION     0.42     0.44   100.07     0  03:00        0.00
  Node_02711           JUNCTION     0.06     0.13   100.04     0  03:23        0.00
  Node_02712           JUNCTION     0.06     0.14   100.04     0  03:23        0.00
  Node_02713           JUNCTION     0.10     0.18   100.03     0  03:21        0.00
  Node_02714           JUNCTION     0.02     0.03   100.43     0  03:00        0.00
  Node_02715           JUNCTION     0.07     0.22   100.03     0  03:21        0.00
  Node_02716           JUNCTION     0.08     0.31   100.03     0  03:19        0.00
  Node_02717           JUNCTION     0.11     0.40   100.03     0  03:20        0.00
  Node_02718           JUNCTION     0.10     0.42   100.02     0  03:20        0.00
  Node_02720           JUNCTION     0.11     0.46   100.02     0  03:21        0.00
  Node_02721           JUNCTION     0.39     0.77   100.02     0  03:20        0.00
  Node_02722           JUNCTION     0.13     0.16   101.96     0  03:00        0.00
  Node_02723           JUNCTION     0.31     0.72   100.02     0  03:21        0.00
  Node_02724           JUNCTION     0.15     0.60   100.02     0  03:21        0.00
  Node_02725           JUNCTION     0.15     0.65   100.01     0  03:21        0.00
  Node_02726           JUNCTION     0.21     0.76   100.02     0  03:21        0.00
  Node_02727           JUNCTION     0.28     0.88   100.00     0  03:21        0.00
  Node_02728           JUNCTION     0.05     0.07   100.15     0  03:00        0.00
  Node_02729           JUNCTION     0.30     0.95   100.01     0  03:22        0.00
  Node_02730           JUNCTION     0.31     0.98   100.00     0  03:19        0.00
  Node_02731           JUNCTION     0.72     1.41   100.00     0  03:19        0.00
  Node_02732           JUNCTION     0.28     0.97    99.99     0  03:18        0.00
  Node_02733           JUNCTION     0.27     0.99   100.00     0  03:19        0.00
  Node_02734           JUNCTION     0.55     1.28    99.99     0  03:18        0.00
  Node_02735           JUNCTION     0.45     1.19   100.00     0  03:18        0.00
  Node_02736           JUNCTION     0.64     1.38    99.99     0  03:18        0.00
  Node_02737           JUNCTION     0.61     1.36    99.98     0  03:17        0.00
  Node_02738           JUNCTION     0.44     1.21    99.98     0  03:17        0.00
  Node_02739           JUNCTION     0.31     1.10    99.97     0  03:17        0.00
  Node_02740           JUNCTION     0.31     1.13    99.97     0  03:17        0.00
  Node_02741           JUNCTION     0.12     0.67    99.97     0  03:17        0.00
  Node_02742           JUNCTION     0.32     1.16    99.96     0  03:18        0.00
  Node_02743           JUNCTION     0.74     1.57    99.94     0  03:17        0.00
  Node_02744           JUNCTION     0.11     0.60    99.95     0  03:17        0.00
  Node_02745           JUNCTION     0.46     1.32    99.94     0  03:17        0.00
  Node_02746           JUNCTION     0.36     1.22    99.91     0  03:18        0.00
  Node_02747           JUNCTION     0.05     0.08   100.43     0  03:00        0.00
  Node_02748           JUNCTION     0.03     0.05   100.50     0  03:00        0.00
  Node_02749           JUNCTION     0.37     1.26    99.90     0  03:17        0.00
  Node_02750           JUNCTION     0.37     1.27    99.87     0  03:17        0.00
  Node_02751           JUNCTION     0.34     1.27    99.86     0  03:18        0.00
  Node_02752           JUNCTION     0.33     1.30    99.84     0  03:17        0.00
  Node_02753           JUNCTION     0.35     1.34    99.81     0  03:17        0.00
  Node_02754           JUNCTION     0.32     1.48    99.80     0  03:17        0.00
  Node_02755           JUNCTION     1.24     2.40    99.79     0  03:17        0.00
  Node_02963           JUNCTION     0.06     0.13   100.04     0  03:20        0.00
  Node_02968           JUNCTION     0.06     0.09   100.21     0  03:00        0.00
  Node_02969           JUNCTION     0.07     0.10    99.98     0  00:00        0.00
  Node_02973           JUNCTION     0.79     1.91    99.80     0  03:17        0.00
  Node_02974           JUNCTION     0.69     2.11    99.24     0  03:25        0.00
  Node_02975           JUNCTION     0.69     2.12    99.26     0  03:24        0.00
  Node_02976           JUNCTION     0.74     2.29    99.48     0  03:18        0.00
  Node_02977           JUNCTION     0.78     2.53    99.86     0  03:17        0.00
  Node_02978           JUNCTION     0.74     2.54   100.07     0  03:17        0.00
  Node_02979           JUNCTION     0.61     1.98    99.10     0  03:24        0.00
[...]
  Link_01821                  24.165
=======
  Link_01732                  16.274
  Link_01733                  22.697
  Link_01734                   9.923
  Link_01735                   8.094
  Link_01751                  53.629
  Link_01752                  60.087
  Link_01753                  76.494
  Link_01754                  82.921
  Link_01755                  89.417
  Link_01756                   8.112
  Link_01757                 103.949
  Link_01758                   9.881
  Link_01759                   9.901
  Link_01760                 126.941
  Link_01761                 133.517
  Link_01762                 140.194
  Link_01763                   8.093
  Link_01764                 154.846
  Link_01765                 168.228
  Link_01766                 174.921
  Link_01767                 253.588
  Link_01768                 260.530
  Link_01769                 268.316
  Link_01770                 276.283
  Link_01771                 283.093
  Link_01772                  22.132
  Link_01773                 312.294
  Link_01774                  29.412
  Link_01775                  71.410
  Link_01776                  65.100
  Link_01777                  58.712
  Link_01778                  52.406
  Link_01779                  46.033
  Link_01780                  39.650
  Link_01781                  33.205
  Link_01782                 367.548
  Link_01783                   9.998
  Link_01784                 384.570
  Link_01785                 391.970
  Link_01786                  60.096
  Link_01787                  31.279
  Link_01788                 490.704
  Link_01789                 498.352
  Link_01790                  15.188
  Link_01791                  13.496
  Link_01792                  11.672
  Link_01793                 542.877
  Link_01794                 550.471
  Link_01795                 557.901
  Link_01796                 565.290
  Link_01797                 572.339
  Link_01798                1160.348
  Link_01799                1150.637
  Link_01800                1169.020
  Link_01801                 604.394
  Link_01802                1108.256
  Link_01803                1141.705
  Link_01804                 998.765
  Link_01805                 990.547
  Link_01806                 982.073
  Link_01807                 973.440
  Link_01808                  13.402
  Link_01809                 952.162
  Link_01810                 936.917
  Link_01811                   6.314
  Link_01812                  51.336
  Link_01813                  42.010
  Link_01814                 904.031
  Link_01815                 895.070
  Link_01816                 878.070
  Link_01817                   8.061
  Link_01818                 845.321
  Link_01819                 825.196
  Link_01820                  11.592
  Link_01821                  24.155
>>>>>>> b040755ab93617f94f1ab7a7036927f36e763e5a
>>>>>>> ebd46bdc835ac17077bb70c3b6f6db3a4ee81ecd
  Link_01822                   5.455
  Link_01823                 168.439
  Link_01824                 166.133
  Link_01825                  47.891
  Link_01826                  49.933
  Link_01827                   1.900
  Link_01828                  53.920
  Link_01829                   5.449
  Link_01830                  61.528
  Link_01831                   1.899
  Link_01832                  65.535
  Link_01833                  67.592
  Link_01834                  71.718
  Link_01835                   1.899
  Link_01836                  37.319
  Link_01837                  19.769
  Link_01838                  25.892
<<<<<<< HEAD
  Link_01839                  35.177
  Link_01840                  33.212
=======
  Link_01839                  35.176
  Link_01840                  33.212
<<<<<<< HEAD
>>>>>>> ebd46bdc835ac17077bb70c3b6f6db3a4ee81ecd
  Link_01841                  31.274
  Link_01842                  25.665
  Link_01843                  21.710
  Link_01844                  19.761
<<<<<<< HEAD
  Link_02074                   9.830
  Link_02075                 163.638
  Link_02076                 182.179
  Link_02077                  16.580
  Link_02078                 205.383
  Link_02079                  11.635
  Link_02080                 223.829
  Link_02081                 230.482
  Link_02082                 237.152
  Link_02083                  11.748
  Link_02084                  10.189
  Link_02085                 563.108
  Link_02086                 548.321
  Link_02087                 540.932
  Link_02088                 532.876
  Link_02089                 525.295
  Link_02090                 520.332
  Link_02091                 513.294
  Link_02092                 506.047
  Link_02093                   9.839
  Link_02094                 480.993
  Link_02095                 473.751
  Link_02096                 440.115
  Link_02097                  16.917
  Link_02098                  23.681
  Link_02099                 433.188
  Link_02100                 426.272
  Link_02101                  15.162
  Link_02102                 397.002
  Link_02103                 374.805
  Link_02104                  20.006
  Link_02105                 307.317
  Link_02106                  13.697
  Link_02107                   6.459
  Link_02108                 292.327
  Link_02109                 285.579
  Link_02110                 244.688
  Link_02111                 161.929
  Link_02112                  15.184
=======
  Link_02074                   9.829
  Link_02075                 163.640
  Link_02076                 182.112
  Link_02077                  15.942
  Link_02078                 204.796
  Link_02079                  11.667
  Link_02080                 223.157
  Link_02081                 229.850
  Link_02082                 236.546
  Link_02083                  11.751
  Link_02084                  10.068
  Link_02085                 580.696
  Link_02086                 565.891
  Link_02087                 558.590
  Link_02088                 550.195
  Link_02089                 542.005
  Link_02090                 532.854
  Link_02091                 525.527
  Link_02092                 518.164
  Link_02093                   9.854
  Link_02094                 492.877
  Link_02095                 485.433
  Link_02096                 449.803
  Link_02097                  16.933
  Link_02098                  22.513
  Link_02099                 442.452
  Link_02100                 435.106
  Link_02101                  15.275
  Link_02102                 405.418
  Link_02103                 382.760
  Link_02104                  20.241
  Link_02105                 313.456
  Link_02106                  13.991
  Link_02107                   6.619
  Link_02108                 298.265
  Link_02109                 291.445
  Link_02110                 244.687
  Link_02111                 161.929
  Link_02112                  15.156
=======
  Link_01841                  31.273
  Link_01842                  25.665
  Link_01843                  21.710
  Link_01844                  19.761
  Link_02074                   9.877
  Link_02075                 163.400
  Link_02076                 182.006
  Link_02077                  15.941
  Link_02078                 204.657
  Link_02079                  11.602
  Link_02080                 223.113
  Link_02081                 229.745
  Link_02082                 236.431
  Link_02083                  11.750
  Link_02084                   9.970
  Link_02085                 565.584
  Link_02086                 550.578
  Link_02087                 543.438
  Link_02088                 535.586
  Link_02089                 527.571
  Link_02090                 522.131
  Link_02091                 514.996
  Link_02092                 507.638
  Link_02093                   9.878
  Link_02094                 482.548
  Link_02095                 475.109
  Link_02096                 439.997
  Link_02097                  16.907
  Link_02098                  23.128
  Link_02099                 432.738
  Link_02100                 425.346
  Link_02101                  15.115
  Link_02102                 395.584
  Link_02103                 373.104
  Link_02104                  20.227
  Link_02105                 306.108
  Link_02106                  13.717
  Link_02107                   6.445
  Link_02108                 291.487
  Link_02109                 285.134
  Link_02110                 244.689
  Link_02111                 161.929
  Link_02112                  15.161
>>>>>>> b040755ab93617f94f1ab7a7036927f36e763e5a
>>>>>>> ebd46bdc835ac17077bb70c3b6f6db3a4ee81ecd
  Link_02113                 119.706
  Link_02114                  32.252
  Link_02115                  30.209
  Link_02116                  28.246
  Link_02117                  26.322
  Link_02118                  24.377
  Link_02123                   5.446
  Link_02124                   7.375
  Link_02125                   9.310
  Link_02126                  11.224
  Link_02127                  22.442
  Link_02128                  20.497
  Link_02129                  18.580
  Link_02130                  16.659
  Link_02131                  14.703
  Link_02132                  12.741
  Link_02133                  10.778
  Link_02134                 121.779
  Link_02135                 123.800
  Link_02136                 131.309
  Link_02137                   5.445
  Link_02138                 149.023
  Link_02139                 146.963
  Link_02140                 144.842
  Link_02141                 142.831
  Link_02142                 140.752
  Link_02143                 133.316
<<<<<<< HEAD
  Link_02383                   6.541
  Link_02384                  13.239
  Link_02385                  20.271
  Link_02386                  24.119
  Link_02387                  50.139
  Link_02388                  56.404
  Link_02389                  24.124
  Link_02390                  62.918
  Link_02391                  93.324
  Link_02392                  31.252
  Link_02393                 130.701
  Link_05459                  47.183
  Link_05460                 120.390
  Link_05461                 161.464
  Link_05462                 348.604
  Link_05463                 534.841
  Link_05464                  26.197
  Link_05496                1770.281
  Link_05662                  38.801
  Link_05663                   8.093
  Link_05664                  49.525
  Link_05665                 451.031
  Link_05677                 338.521
  Link_05678                  17.117
  Link_05720                1092.127
  Link_05721                 922.679
  Link_05722                  15.221
  Link_05723                  85.360
  Link_05725                  13.180
  Link_05726                 570.500
  Link_05727                   8.091
  Link_05728                 488.760
  Link_05729                 404.011
  Link_05730                 242.527
  Link_05731                 163.897
  Link_05732                 159.940
  Link_05742                  24.246
  Link_05743                 135.249
  Link_05744                 244.240
  Link_05752                  38.704
  Link_05753                   3.681
  Link_05754                  23.678
  Link_05791                   5.445
  Link_05812                 244.467
  Link_05813                 139.863
  Link_05814                 117.563
  Link_05815                 127.860
=======
<<<<<<< HEAD
  Link_02383                   6.594
  Link_02384                  13.490
  Link_02385                  20.733
  Link_02386                  24.138
  Link_02387                  50.914
  Link_02388                  57.277
  Link_02389                  24.151
  Link_02390                  63.687
  Link_02391                  93.616
  Link_02392                  31.243
  Link_02393                 130.570
  Link_05459                  47.183
  Link_05460                 120.373
  Link_05461                 161.438
  Link_05462                 347.424
  Link_05463                 533.727
  Link_05464                  29.085
  Link_05496                1790.356
  Link_05662                  38.801
  Link_05663                   8.091
  Link_05664                  49.532
  Link_05665                 451.793
  Link_05677                 339.206
  Link_05678                  17.120
  Link_05720                1111.573
  Link_05721                 941.372
  Link_05722                  15.182
  Link_05723                  85.360
  Link_05725                  13.180
  Link_05726                 588.299
  Link_05727                   8.101
  Link_05728                 500.844
  Link_05729                 412.745
  Link_05730                 242.527
  Link_05731                 163.897
  Link_05732                 159.940
  Link_05742                  24.306
  Link_05743                 135.272
  Link_05744                 243.765
  Link_05752                  34.910
  Link_05753                   3.681
  Link_05754                  23.678
  Link_05791                   5.445
  Link_05812                 245.068
  Link_05813                 139.960
  Link_05814                 117.883
  Link_05815                 128.130
>>>>>>> ebd46bdc835ac17077bb70c3b6f6db3a4ee81ecd
  Link_05816                  16.732
  Link_05817                  24.234
  Link_05818                  10.790
  Link_05983                  25.123
  Link_05984                  18.791
  Link_06039                   1.883
<<<<<<< HEAD
  Link_07220                  84.246
  Link_07221                  90.072
  Link_07222                 116.381
  Link_07230                 122.975
  Link_07231                 129.515
  Link_07233                 262.086
  Link_07234                 268.464
  Link_07235                 125.959
  Link_07270                  24.189
  Link_07271                  30.562
  Link_07274                  15.199
  Link_07277                  36.904
  Link_07278                  43.245
  Link_07295                  49.631
  Link_07296                  56.076
  Link_07297                  77.738
=======
  Link_07220                  84.258
  Link_07221                  90.090
  Link_07222                 116.389
  Link_07230                 122.976
  Link_07231                 129.521
  Link_07233                 262.113
  Link_07234                 268.491
  Link_07235                 125.975
  Link_07270                  24.189
  Link_07271                  30.562
  Link_07274                  15.199
  Link_07277                  36.906
  Link_07278                  43.247
  Link_07295                  49.631
  Link_07296                  56.076
  Link_07297                  77.737
  Link_07303                   9.870
  Link_07306                   9.868
  Link_07321                  10.776
  Link_07464                  20.457
  Link_07578                  24.340
  Link_07579                 374.053
  Link_07580                 342.752
  Link_07687                  18.964
  Link_07865                  10.769
  Link_08891                  11.752
  Link_08912                  32.973
  Link1_to_ChengXi          1868.508
  Link2_to_ChengXi           462.971
  Link3_to_ChengXi           275.731
  Link_to_LaoDongLu          246.749
  Pump_ChengXi1              968.828
  Pump_ChengXi2              745.482
  Pump_ChengXi3              517.605
  Pump_ChengXi4              435.142
  Pump_LaoDongLu1            154.527
  Pump_LaoDongLu2             65.463
  Pump_LaoDongLu3             65.463
  outfallpump               2059.246
  

  Analysis begun on:  Mon Aug 16 03:25:34 2021
  Analysis ended on:  Mon Aug 16 03:25:36 2021
=======
  Link_02383                   6.619
  Link_02384                  13.533
  Link_02385                  20.791
  Link_02386                  24.139
  Link_02387                  50.992
  Link_02388                  57.387
  Link_02389                  24.088
  Link_02390                  63.766
  Link_02391                  93.667
  Link_02392                  31.179
  Link_02393                 130.477
  Link_05459                  47.180
  Link_05460                 120.339
  Link_05461                 161.435
  Link_05462                 348.852
  Link_05463                 535.030
  Link_05464                  28.647
  Link_05496                1782.408
  Link_05662                  38.801
  Link_05663                   8.094
  Link_05664                  48.857
  Link_05665                 448.710
  Link_05677                 336.152
  Link_05678                  17.111
  Link_05720                1100.510
  Link_05721                 928.169
  Link_05722                  15.201
  Link_05723                  85.360
  Link_05725                  13.180
  Link_05726                 572.997
  Link_05727                   8.114
  Link_05728                 490.268
  Link_05729                 402.818
  Link_05730                 242.527
  Link_05731                 163.897
  Link_05732                 159.940
  Link_05742                  24.298
  Link_05743                 135.056
  Link_05744                 243.514
  Link_05752                  38.630
  Link_05753                   3.681
  Link_05754                  23.678
  Link_05791                   5.445
  Link_05812                 243.053
  Link_05813                 139.065
  Link_05814                 118.565
  Link_05815                 128.918
  Link_05816                  16.732
  Link_05817                  24.234
  Link_05818                  10.790
  Link_05983                  25.121
  Link_05984                  18.791
  Link_06039                   1.883
  Link_07220                  84.263
  Link_07221                  90.077
  Link_07222                 116.382
  Link_07230                 122.976
  Link_07231                 129.520
  Link_07233                 262.104
  Link_07234                 268.491
  Link_07235                 125.995
  Link_07270                  24.189
  Link_07271                  30.562
  Link_07274                  15.199
  Link_07277                  36.904
  Link_07278                  43.244
  Link_07295                  49.629
  Link_07296                  56.074
  Link_07297                  77.735
>>>>>>> ebd46bdc835ac17077bb70c3b6f6db3a4ee81ecd
  Link_07303                   9.870
  Link_07306                   9.868
  Link_07321                  10.776
  Link_07464                  20.471
<<<<<<< HEAD
  Link_07578                  24.467
  Link_07579                 366.685
  Link_07580                 335.532
  Link_07687                  18.946
  Link_07865                  10.769
  Link_08891                  11.980
  Link_08912                  32.970
  Link1_to_ChengXi          1848.459
  Link2_to_ChengXi           462.202
  Link3_to_ChengXi           275.706
  Link_to_LaoDongLu          246.751
  Pump_ChengXi1             1254.052
  Pump_ChengXi2              488.460
  Pump_ChengXi3              450.340
  Pump_ChengXi4              450.340
  Pump_LaoDongLu1            137.174
  Pump_LaoDongLu2             75.429
  Pump_LaoDongLu3             66.882
  outfallpump               1621.024
  

  Analysis begun on:  Mon Aug 16 03:43:23 2021
  Analysis ended on:  Mon Aug 16 03:43:25 2021
=======
  Link_07578                  24.574
  Link_07579                 365.140
  Link_07580                 334.196
  Link_07687                  18.942
  Link_07865                  10.769
  Link_08891                  11.786
  Link_08912                  32.973
  Link1_to_ChengXi          1861.547
  Link2_to_ChengXi           459.876
  Link3_to_ChengXi           275.735
  Link_to_LaoDongLu          246.751
  Pump_ChengXi1             1122.194
  Pump_ChengXi2              639.173
  Pump_ChengXi3              464.937
  Pump_ChengXi4              423.430
  Pump_LaoDongLu1            148.528
  Pump_LaoDongLu2             80.961
  Pump_LaoDongLu3             49.927
  outfallpump               1954.313
  

  Analysis begun on:  Tue Aug 17 21:44:09 2021
  Analysis ended on:  Tue Aug 17 21:44:11 2021
>>>>>>> b040755ab93617f94f1ab7a7036927f36e763e5a
>>>>>>> ebd46bdc835ac17077bb70c3b6f6db3a4ee81ecd
  Total elapsed time: 00:00:02