
  EPA STORM WATER MANAGEMENT MODEL - VERSION 5.1 (Build 5.3.0.dev0)
  --------------------------------------------------------------

  WARNING 04: minimum elevation drop used for Conduit Link_01776
  WARNING 04: minimum elevation drop used for Conduit Link_01779
  WARNING 04: minimum elevation drop used for Conduit Link_07234
  WARNING 02: maximum depth increased for Node Node_06087
  
  *********************************************************
  NOTE: The summary statistics displayed in this report are
  based on results found at every computational time step,  
  not just on results from each reporting time step.
  *********************************************************
  
  ****************
  Analysis Options
  ****************
  Flow Units ............... CMS
  Process Models:
    Rainfall/Runoff ........ YES
    RDII ................... NO
    Snowmelt ............... NO
    Groundwater ............ NO
    Flow Routing ........... YES
    Ponding Allowed ........ YES
    Water Quality .......... YES
  Infiltration Method ...... HORTON
  Flow Routing Method ...... DYNWAVE
  Surcharge Method ......... EXTRAN
  Starting Date ............ 01/02/2011 00:00:00
  Ending Date .............. 01/02/2011 06:00:00
  Antecedent Dry Days ...... 0.0
  Report Time Step ......... 00:15:00
  Wet Time Step ............ 00:05:00
  Dry Time Step ............ 01:00:00
  Routing Time Step ........ 60.00 sec
  Variable Time Step ....... YES
  Maximum Trials ........... 8
  Number of Threads ........ 1
  Head Tolerance ........... 0.001500 m
  
  
  **************************        Volume         Depth
  Runoff Quantity Continuity     hectare-m            mm
  **************************     ---------       -------
  Total Precipitation ......         0.429        15.000
  Evaporation Loss .........         0.000         0.000
  Infiltration Loss ........         0.034         1.201
  Surface Runoff ...........         0.397        13.871
  Final Storage ............         0.000         0.009
  Continuity Error (%) .....        -0.545
  
  
  **************************           COD
  Runoff Quality Continuity             kg
  **************************    ----------
  Initial Buildup ..........         0.000
  Surface Buildup ..........         0.000
  Wet Deposition ...........      1128.277
  Sweeping Removal .........         0.000
  Infiltration Loss ........        90.337
  BMP Removal ..............         0.000
  Surface Runoff ...........      1043.385
  Remaining Buildup ........         0.706
  Continuity Error (%) .....        -0.545
  
  
  **************************        Volume        Volume
  Flow Routing Continuity        hectare-m      10^6 ltr
  **************************     ---------     ---------
  Dry Weather Inflow .......         0.153         1.529
  Wet Weather Inflow .......         0.397         3.967
  Groundwater Inflow .......         0.000         0.000
  RDII Inflow ..............         0.000         0.000
  External Inflow ..........         0.000         0.000
<<<<<<< HEAD
  External Outflow .........         0.507         5.066
  Flooding Loss ............         0.073         0.727
  Evaporation Loss .........         0.000         0.000
  Exfiltration Loss ........         0.000         0.000
  Initial Stored Volume ....         0.077         0.773
  Final Stored Volume ......         0.051         0.509
  Continuity Error (%) .....        -0.514
=======
<<<<<<< HEAD
  External Outflow .........         0.507         5.071
  Flooding Loss ............         0.077         0.774
  Evaporation Loss .........         0.000         0.000
  Exfiltration Loss ........         0.000         0.000
  Initial Stored Volume ....         0.077         0.773
  Final Stored Volume ......         0.047         0.469
  Continuity Error (%) .....        -0.714
=======
  External Outflow .........         0.510         5.097
  Flooding Loss ............         0.070         0.695
  Evaporation Loss .........         0.000         0.000
  Exfiltration Loss ........         0.000         0.000
  Initial Stored Volume ....         0.077         0.773
  Final Stored Volume ......         0.052         0.519
  Continuity Error (%) .....        -0.681
>>>>>>> b040755ab93617f94f1ab7a7036927f36e763e5a
>>>>>>> ebd46bdc835ac17077bb70c3b6f6db3a4ee81ecd
  
  
  **************************           COD
  Quality Routing Continuity            kg
  **************************    ----------
  Dry Weather Inflow .......       845.606
  Wet Weather Inflow .......      1043.281
  Groundwater Inflow .......         0.000
  RDII Inflow ..............         0.000
  External Inflow ..........         0.000
<<<<<<< HEAD
  External Outflow .........      1338.734
  Flooding Loss ............       215.627
  Exfiltration Loss ........         0.000
  Mass Reacted .............         0.000
  Initial Stored Mass ......       427.257
  Final Stored Mass ........       241.281
  Continuity Error (%) .....        22.473
=======
<<<<<<< HEAD
  External Outflow .........      1502.600
  Flooding Loss ............       230.683
  Exfiltration Loss ........         0.000
  Mass Reacted .............         0.000
  Initial Stored Mass ......       427.257
  Final Stored Mass ........       226.973
  Continuity Error (%) .....        15.366
=======
  External Outflow .........      1409.488
  Flooding Loss ............       207.867
  Exfiltration Loss ........         0.000
  Mass Reacted .............         0.000
  Initial Stored Mass ......       427.257
  Final Stored Mass ........       246.805
  Continuity Error (%) .....        19.515
>>>>>>> b040755ab93617f94f1ab7a7036927f36e763e5a
>>>>>>> ebd46bdc835ac17077bb70c3b6f6db3a4ee81ecd
  
  
  *************************
  Highest Continuity Errors
  *************************
<<<<<<< HEAD
  Node Node_04563 (1.60%)
=======
<<<<<<< HEAD
  Node Node_04563 (1.06%)
  Node Node_04451 (-1.04%)
=======
  Node Node_04451 (-1.32%)
  Node Node_04563 (1.31%)
  Node Node_04461 (-1.06%)
  Node Node_05329 (-1.00%)
>>>>>>> b040755ab93617f94f1ab7a7036927f36e763e5a
>>>>>>> ebd46bdc835ac17077bb70c3b6f6db3a4ee81ecd
  
  
  ***************************
  Time-Step Critical Elements
  ***************************
<<<<<<< HEAD
  Link Link_01778 (93.98%)
  Link Link_01558 (4.81%)
=======
<<<<<<< HEAD
  Link Link_01778 (94.79%)
  Link Link_01558 (4.77%)
=======
  Link Link_01778 (94.47%)
  Link Link_01558 (4.84%)
>>>>>>> b040755ab93617f94f1ab7a7036927f36e763e5a
>>>>>>> ebd46bdc835ac17077bb70c3b6f6db3a4ee81ecd
  
  
  ********************************
  Highest Flow Instability Indexes
  ********************************
<<<<<<< HEAD
  Link Link_01778 (26)
  Link Link_01558 (23)
  Link Link_01777 (20)
  Link Link_01810 (18)
  Link Link_01335 (17)
=======
  Link Link_01558 (29)
<<<<<<< HEAD
  Link Link_01323 (28)
  Link Link_01336 (28)
  Link Link_01335 (28)
  Link Link_01810 (27)
=======
  Link Link_01778 (26)
  Link Link_01810 (25)
  Link Link_01335 (23)
  Link Link_01323 (22)
>>>>>>> b040755ab93617f94f1ab7a7036927f36e763e5a
>>>>>>> ebd46bdc835ac17077bb70c3b6f6db3a4ee81ecd
  
  
  *************************
  Routing Time Step Summary
  *************************
  Minimum Time Step           :     5.00 sec
  Average Time Step           :     5.00 sec
  Maximum Time Step           :     5.00 sec
  Percent in Steady State     :     0.00
<<<<<<< HEAD
  Average Iterations per Step :     3.27
  Percent Not Converging      :    10.32
=======
<<<<<<< HEAD
  Average Iterations per Step :     3.77
  Percent Not Converging      :    11.23
=======
  Average Iterations per Step :     3.51
  Percent Not Converging      :    10.67
>>>>>>> b040755ab93617f94f1ab7a7036927f36e763e5a
>>>>>>> ebd46bdc835ac17077bb70c3b6f6db3a4ee81ecd
  
  
  ***************************
  Subcatchment Runoff Summary
  ***************************
  
  ------------------------------------------------------------------------------------------------------------------------------
                            Total      Total      Total      Total     Imperv       Perv      Total       Total     Peak  Runoff
                           Precip      Runon       Evap      Infil     Runoff     Runoff     Runoff      Runoff   Runoff   Coeff
  Subcatchment                 mm         mm         mm         mm         mm         mm         mm    10^6 ltr      CMS
  ------------------------------------------------------------------------------------------------------------------------------
  2707                      15.00       0.00       0.00       1.21       3.75      10.11      13.86        0.01     0.00   0.924
  2708                      15.00       0.00       0.00       1.21       3.75      10.11      13.86        0.01     0.00   0.924
  2709                      15.00       0.00       0.00       1.21       3.75      10.11      13.86        0.01     0.00   0.924
  2710                      15.00       0.00       0.00       1.21       3.75      10.11      13.86        0.01     0.00   0.924
  2712                      15.00       0.00       0.00       1.21       3.75      10.11      13.86        0.01     0.00   0.924
  2713                      15.00       0.00       0.00       1.21       3.75      10.11      13.86        0.01     0.00   0.924
  2714                      15.00       0.00       0.00       1.21       3.75      10.11      13.86        0.01     0.00   0.924
  2715                      15.00       0.00       0.00       1.21       3.75      10.11      13.86        0.01     0.00   0.924
  2716                      15.00       0.00       0.00       1.21       3.75      10.11      13.86        0.01     0.00   0.924
  2717                      15.00       0.00       0.00       1.21       3.75      10.11      13.86        0.01     0.00   0.924
  2718                      15.00       0.00       0.00       1.21       3.75      10.11      13.86        0.01     0.00   0.924
  2719                      15.00       0.00       0.00       1.21       3.75      10.11      13.86        0.01     0.00   0.924
  2721                      15.00       0.00       0.00       1.21       3.75      10.11      13.86        0.01     0.00   0.924
  2722                      15.00       0.00       0.00       1.21       3.75      10.11      13.86        0.01     0.00   0.924
  2723                      15.00       0.00       0.00       1.21       3.75      10.11      13.86        0.01     0.00   0.924
  2724                      15.00       0.00       0.00       1.21       3.75      10.11      13.86        0.01     0.00   0.924
  2725                      15.00       0.00       0.00       1.21       3.75      10.11      13.86        0.01     0.00   0.924
  2726                      15.00       0.00       0.00       1.21       3.75      10.11      13.86        0.01     0.00   0.924
  2727                      15.00       0.00       0.00       1.21       3.75      10.11      13.86        0.01     0.00   0.924
  2728                      15.00       0.00       0.00       1.21       3.75      10.11      13.86        0.01     0.00   0.924
  2729                      15.00       0.00       0.00       1.21       3.75      10.11      13.86        0.01     0.00   0.924
  2730                      15.00       0.00       0.00       1.21       3.75      10.11      13.86        0.01     0.00   0.924
  2731                      15.00       0.00       0.00       1.21       3.75      10.11      13.86        0.01     0.00   0.924
  2732                      15.00       0.00       0.00       1.21       3.75      10.11      13.86        0.01     0.00   0.924
  2733                      15.00       0.00       0.00       1.21       3.75      10.11      13.86        0.01     0.00   0.924
  2734                      15.00       0.00       0.00       1.21       3.75      10.11      13.86        0.01     0.00   0.924
  2735                      15.00       0.00       0.00       1.21       3.75      10.11      13.86        0.01     0.00   0.924
  2736                      15.00       0.00       0.00       1.21       3.75      10.11      13.86        0.01     0.00   0.924
  2737                      15.00       0.00       0.00       1.21       3.75      10.11      13.86        0.01     0.00   0.924
  2738                      15.00       0.00       0.00       1.21       3.75      10.11      13.86        0.01     0.00   0.924
  2739                      15.00       0.00       0.00       1.21       3.75      10.11      13.86        0.01     0.00   0.924
  2740                      15.00       0.00       0.00       1.21       3.75      10.11      13.86        0.01     0.00   0.924
  2741                      15.00       0.00       0.00       1.21       3.75      10.11      13.86        0.01     0.00   0.924
  2742                      15.00       0.00       0.00       1.21       3.75      10.11      13.86        0.01     0.00   0.924
  2743                      15.00       0.00       0.00       1.21       3.75      10.11      13.86        0.01     0.00   0.924
  2744                      15.00       0.00       0.00       1.21       3.75      10.11      13.86        0.01     0.00   0.924
  2745                      15.00       0.00       0.00       1.21       3.75      10.11      13.86        0.01     0.00   0.924
  2746                      15.00       0.00       0.00       1.21       3.75      10.11      13.86        0.01     0.00   0.924
  2747                      15.00       0.00       0.00       1.21       3.75      10.11      13.86        0.01     0.00   0.924
  2748                      15.00       0.00       0.00       1.21       3.75      10.11      13.86        0.01     0.00   0.924
  2749                      15.00       0.00       0.00       1.21       3.75      10.11      13.86        0.01     0.00   0.924
  2750                      15.00       0.00       0.00       1.21       3.75      10.11      13.86        0.01     0.00   0.924
  2751                      15.00       0.00       0.00       1.21       3.75      10.11      13.86        0.01     0.00   0.924
  2752                      15.00       0.00       0.00       1.21       3.75      10.11      13.86        0.01     0.00   0.924
  2753                      15.00       0.00       0.00       1.21       3.75      10.11      13.86        0.01     0.00   0.924
  2754                      15.00       0.00       0.00       1.21       3.75      10.11      13.86        0.01     0.00   0.924
  2755                      15.00       0.00       0.00       1.21       3.75      10.11      13.86        0.01     0.00   0.924
  2756                      15.00       0.00       0.00       1.21       3.75      10.11      13.86        0.01     0.00   0.924
  2964                      15.00       0.00       0.00       1.21       3.75      10.11      13.86        0.01     0.00   0.924
  2969                      15.00       0.00       0.00       1.21       3.75      10.11      13.86        0.01     0.00   0.924
  2970                      15.00       0.00       0.00       1.21       3.75      10.11      13.86        0.01     0.00   0.924
  2974                      15.00       0.00       0.00       1.21       3.75      10.11      13.86        0.01     0.00   0.924
  2975                      15.00       0.00       0.00       1.21       3.75      10.11      13.86        0.01     0.00   0.924
  2976                      15.00       0.00       0.00       1.21       3.75      10.11      13.86        0.01     0.00   0.924
  2977                      15.00       0.00       0.00       1.21       3.75      10.11      13.86        0.01     0.00   0.924
  2978                      15.00       0.00       0.00       1.21       3.75      10.11      13.86        0.01     0.00   0.924
  2979                      15.00       0.00       0.00       1.21       3.75      10.11      13.86        0.01     0.00   0.924
  2980                      15.00       0.00       0.00       1.21       3.75      10.11      13.86        0.01     0.00   0.924
  2981                      15.00       0.00       0.00       1.21       3.75      10.11      13.86        0.01     0.00   0.924
  2982                      15.00       0.00       0.00       1.21       3.75      10.11      13.86        0.01     0.00   0.924
  2984                      15.00       0.00       0.00       1.21       3.75      10.11      13.86        0.01     0.00   0.924
  2985                      15.00       0.00       0.00       1.21       3.75      10.11      13.86        0.01     0.00   0.924
  3925                      15.00       0.00       0.00       1.21       3.75      10.11      13.86        0.01     0.00   0.924
  3926                      15.00       0.00       0.00       1.21       3.75      10.11      13.86        0.01     0.00   0.924
  3927                      15.00       0.00       0.00       1.21       3.75      10.11      13.86        0.01     0.00   0.924
  3928                      15.00       0.00       0.00       1.21       3.75      10.11      13.86        0.01     0.00   0.924
  3929                      15.00       0.00       0.00       1.21       3.75      10.11      13.86        0.01     0.00   0.924
  3930                      15.00       0.00       0.00       1.21       3.75      10.11      13.86        0.01     0.00   0.924
  3931                      15.00       0.00       0.00       1.21       3.75      10.11      13.86        0.01     0.00   0.924
  3932                      15.00       0.00       0.00       1.21       3.75      10.11      13.86        0.01     0.00   0.924
  3933                      15.00       0.00       0.00       1.21       3.75      10.11      13.86        0.01     0.00   0.924
  3934                      15.00       0.00       0.00       1.21       3.75      10.11      13.86        0.01     0.00   0.924
  3935                      15.00       0.00       0.00       1.21       3.75      10.11      13.86        0.01     0.00   0.924
  3936                      15.00       0.00       0.00       1.21       3.75      10.11      13.86        0.01     0.00   0.924
  3937                      15.00       0.00       0.00       1.21       3.75      10.11      13.86        0.01     0.00   0.924
  3938                      15.00       0.00       0.00       1.21       3.75      10.11      13.86        0.01     0.00   0.924
  3939                      15.00       0.00       0.00       1.21       3.75      10.11      13.86        0.01     0.00   0.924
  3940                      15.00       0.00       0.00       1.21       3.75      10.11      13.86        0.01     0.00   0.924
  3941                      15.00       0.00       0.00       1.21       3.75      10.11      13.86        0.01     0.00   0.924
  3942                      15.00       0.00       0.00       1.21       3.75      10.11      13.86        0.01     0.00   0.924
  3943                      15.00       0.00       0.00       1.21       3.75      10.11      13.86        0.01     0.00   0.924
  3944                      15.00       0.00       0.00       1.21       3.75      10.11      13.86        0.01     0.00   0.924
  3945                      15.00       0.00       0.00       1.21       3.75      10.11      13.86        0.01     0.00   0.924
  3946                      15.00       0.00       0.00       1.21       3.75      10.11      13.86        0.01     0.00   0.924
  3947                      15.00       0.00       0.00       1.21       3.75      10.11      13.86        0.01     0.00   0.924
  3948                      15.00       0.00       0.00       1.21       3.75      10.11      13.86        0.01     0.00   0.924
  3949                      15.00       0.00       0.00       1.21       3.75      10.11      13.86        0.01     0.00   0.924
  3950                      15.00       0.00       0.00       1.21       3.75      10.11      13.86        0.01     0.00   0.924
  3951                      15.00       0.00       0.00       1.21       3.75      10.11      13.86        0.01     0.00   0.924
  3952                      15.00       0.00       0.00       1.21       3.75      10.11      13.86        0.01     0.00   0.924
  3953                      15.00       0.00       0.00       1.21       3.75      10.11      13.86        0.01     0.00   0.924
  3954                      15.00       0.00       0.00       1.21       3.75      10.11      13.86        0.01     0.00   0.924
  3955                      15.00       0.00       0.00       1.21       3.75      10.11      13.86        0.01     0.00   0.924
  3956                      15.00       0.00       0.00       1.21       3.75      10.11      13.86        0.01     0.00   0.924
  4032                      15.00       0.00       0.00       1.21       3.75      10.11      13.86        0.01     0.00   0.924
  4033                      15.00       0.00       0.00       1.21       3.75      10.11      13.86        0.01     0.00   0.924
  4041                      15.00       0.00       0.00       1.21       3.75      10.11      13.86        0.01     0.00   0.924
  4051                      15.00       0.00       0.00       1.21       3.75      10.11      13.86        0.01     0.00   0.924
  4055                      15.00       0.00       0.00       1.21       3.75      10.11      13.86        0.01     0.00   0.924
  4056                      15.00       0.00       0.00       1.21       3.75      10.11      13.86        0.01     0.00   0.924
  4058                      15.00       0.00       0.00       1.21       3.75      10.11      13.86        0.01     0.00   0.924
  4385                      15.00       0.00       0.00       1.21       3.75      10.11      13.86        0.01     0.00   0.924
  4386                      15.00       0.00       0.00       1.21       3.75      10.11      13.86        0.01     0.00   0.924
  4387                      15.00       0.00       0.00       1.21       3.75      10.11      13.86        0.01     0.00   0.924
  4388                      15.00       0.00       0.00       1.21       3.75      10.11      13.86        0.01     0.00   0.924
  4389                      15.00       0.00       0.00       1.21       3.75      10.11      13.86        0.01     0.00   0.924
  4390                      15.00       0.00       0.00       1.21       3.75      10.11      13.86        0.01     0.00   0.924
  4391                      15.00       0.00       0.00       1.21       3.75      10.11      13.86        0.01     0.00   0.924
  4392                      15.00       0.00       0.00       1.21       3.75      10.11      13.86        0.01     0.00   0.924
  4393                      15.00       0.00       0.00       1.21       3.75      10.11      13.86        0.01     0.00   0.924
  4394                      15.00       0.00       0.00       1.21       3.75      10.11      13.86        0.01     0.00   0.924
  4395                      15.00       0.00       0.00       1.21       3.75      10.11      13.86        0.01     0.00   0.924
  4396                      15.00       0.00       0.00       1.21       3.75      10.11      13.86        0.01     0.00   0.924
  4397                      15.00       0.00       0.00       1.21       3.75      10.11      13.86        0.01     0.00   0.924
  4398                      15.00       0.00       0.00       1.21       3.75      10.11      13.86        0.01     0.00   0.924
  4429                      15.00       0.00       0.00       1.21       3.75      10.11      13.86        0.01     0.00   0.924
  4430                      15.00       0.00       0.00       1.21       3.75      10.11      13.86        0.01     0.00   0.924
  4431                      15.00       0.00       0.00       1.21       3.75      10.11      13.86        0.01     0.00   0.924
  4432                      15.00       0.00       0.00       1.21       3.75      10.11      13.86        0.01     0.00   0.924
  4433                      15.00       0.00       0.00       1.21       3.75      10.11      13.86        0.01     0.00   0.924
  4434                      15.00       0.00       0.00       1.21       3.75      10.11      13.86        0.01     0.00   0.924
  4435                      15.00       0.00       0.00       1.21       3.75      10.11      13.86        0.01     0.00   0.924
  4436                      15.00       0.00       0.00       1.21       3.75      10.11      13.86        0.01     0.00   0.924
  4437                      15.00       0.00       0.00       1.21       3.75      10.11      13.86        0.01     0.00   0.924
  4438                      15.00       0.00       0.00       1.21       3.75      10.11      13.86        0.01     0.00   0.924
  4439                      15.00       0.00       0.00       1.21       3.75      10.11      13.86        0.01     0.00   0.924
  4440                      15.00       0.00       0.00       1.21       3.75      10.11      13.86        0.01     0.00   0.924
  4441                      15.00       0.00       0.00       1.21       3.75      10.11      13.86        0.01     0.00   0.924
  4442                      15.00       0.00       0.00       1.21       3.75      10.11      13.86        0.01     0.00   0.924
  4443                      15.00       0.00       0.00       1.21       3.75      10.11      13.86        0.01     0.00   0.924
  4444                      15.00       0.00       0.00       1.21       3.75      10.11      13.86        0.01     0.00   0.924
  4445                      15.00       0.00       0.00       1.21       3.75      10.11      13.86        0.01     0.00   0.924
  4446                      15.00       0.00       0.00       1.21       3.75      10.11      13.86        0.01     0.00   0.924
  4447                      15.00       0.00       0.00       1.21       3.75      10.11      13.86        0.01     0.00   0.924
  4448                      15.00       0.00       0.00       1.21       3.75      10.11      13.86        0.01     0.00   0.924
  4449                      15.00       0.00       0.00       1.21       3.75      10.11      13.86        0.01     0.00   0.924
  4450                      15.00       0.00       0.00       1.21       3.75      10.11      13.86        0.01     0.00   0.924
  4451                      15.00       0.00       0.00       1.21       3.75      10.11      13.86        0.01     0.00   0.924
  4452                      15.00       0.00       0.00       1.21       3.75      10.11      13.86        0.01     0.00   0.924
  4453                      15.00       0.00       0.00       1.21       3.75      10.11      13.86        0.01     0.00   0.924
  4454                      15.00       0.00       0.00       1.21       3.75      10.11      13.86        0.01     0.00   0.924
  4462                      15.00       0.00       0.00       1.21       3.75      10.11      13.86        0.01     0.00   0.924
  4463                      15.00       0.00       0.00       1.21       3.75      10.11      13.86        0.01     0.00   0.924
  4563                      15.00       0.00       0.00       1.21       3.75      10.11      13.86        0.01     0.00   0.924
  4564                      15.00       0.00       0.00       1.21       3.75      10.11      13.86        0.01     0.00   0.924
  4565                      15.00       0.00       0.00       1.21       3.75      10.11      13.86        0.01     0.00   0.924
  4566                      15.00       0.00       0.00       1.21       3.75      10.11      13.86        0.01     0.00   0.924
  4567                      15.00       0.00       0.00       1.21       3.75      10.11      13.86        0.01     0.00   0.924
  4568                      15.00       0.00       0.00       1.21       3.75      10.11      13.86        0.01     0.00   0.924
  4569                      15.00       0.00       0.00       1.21       3.75      10.11      13.86        0.01     0.00   0.924
  4570                      15.00       0.00       0.00       1.21       3.75      10.11      13.86        0.01     0.00   0.924
  4571                      15.00       0.00       0.00       1.21       3.75      10.11      13.86        0.01     0.00   0.924
  4572                      15.00       0.00       0.00       1.21       3.75      10.11      13.86        0.01     0.00   0.924
  4573                      15.00       0.00       0.00       1.21       3.75      10.11      13.86        0.01     0.00   0.924
  4574                      15.00       0.00       0.00       1.21       3.75      10.11      13.86        0.01     0.00   0.924
  4575                      15.00       0.00       0.00       1.21       3.75      10.11      13.86        0.01     0.00   0.924
  4576                      15.00       0.00       0.00       1.21       3.75      10.11      13.86        0.01     0.00   0.924
  4577                      15.00       0.00       0.00       1.21       3.75      10.11      13.86        0.01     0.00   0.924
  4578                      15.00       0.00       0.00       1.21       3.75      10.11      13.86        0.01     0.00   0.924
  4579                      15.00       0.00       0.00       1.21       3.75      10.11      13.86        0.01     0.00   0.924
  4580                      15.00       0.00       0.00       1.21       3.75      10.11      13.86        0.01     0.00   0.924
  4581                      15.00       0.00       0.00       1.21       3.75      10.11      13.86        0.01     0.00   0.924
  4624                      15.00       0.00       0.00       1.21       3.75      10.11      13.86        0.01     0.00   0.924
  4625                      15.00       0.00       0.00       1.21       3.75      10.11      13.86        0.01     0.00   0.924
  4644                      15.00       0.00       0.00       1.21       3.75      10.11      13.86        0.01     0.00   0.924
  4645                      15.00       0.00       0.00       1.21       3.75      10.11      13.86        0.01     0.00   0.924
  4646                      15.00       0.00       0.00       1.21       3.75      10.11      13.86        0.01     0.00   0.924
  4679                      15.00       0.00       0.00       1.21       3.75      10.11      13.86        0.01     0.00   0.924
  4680                      15.00       0.00       0.00       1.21       3.75      10.11      13.86        0.01     0.00   0.924
  4681                      15.00       0.00       0.00       1.21       3.75      10.11      13.86        0.01     0.00   0.924
  4682                      15.00       0.00       0.00       1.21       3.75      10.11      13.86        0.01     0.00   0.924
  4683                      15.00       0.00       0.00       1.21       3.75      10.11      13.86        0.01     0.00   0.924
  4711                      15.00       0.00       0.00       1.21       3.75      10.11      13.86        0.01     0.00   0.924
  4712                      15.00       0.00       0.00       1.21       3.75      10.11      13.86        0.01     0.00   0.924
  4713                      15.00       0.00       0.00       1.21       3.75      10.11      13.86        0.01     0.00   0.924
  4714                      15.00       0.00       0.00       1.21       3.75      10.11      13.86        0.01     0.00   0.924
  4715                      15.00       0.00       0.00       1.21       3.75      10.11      13.86        0.01     0.00   0.924
  4716                      15.00       0.00       0.00       1.21       3.75      10.11      13.86        0.01     0.00   0.924
  4717                      15.00       0.00       0.00       1.21       3.75      10.11      13.86        0.01     0.00   0.924
  4718                      15.00       0.00       0.00       1.21       3.75      10.11      13.86        0.01     0.00   0.924
  4722                      15.00       0.00       0.00       1.21       3.75      10.11      13.86        0.01     0.00   0.924
  4760                      15.00       0.00       0.00       1.21       3.75      10.11      13.86        0.01     0.00   0.924
  4761                      15.00       0.00       0.00       1.21       3.75      10.11      13.86        0.01     0.00   0.924
  4765                      15.00       0.00       0.00       1.21       3.75      10.11      13.86        0.01     0.00   0.924
  4766                      15.00       0.00       0.00       1.21       3.75      10.11      13.86        0.01     0.00   0.924
  4767                      15.00       0.00       0.00       1.21       3.75      10.11      13.86        0.01     0.00   0.924
  4768                      15.00       0.00       0.00       1.21       3.75      10.11      13.86        0.01     0.00   0.924
  4769                      15.00       0.00       0.00       1.21       3.75      10.11      13.86        0.01     0.00   0.924
  4855                      15.00       0.00       0.00       1.21       3.75      10.11      13.86        0.01     0.00   0.924
  4856                      15.00       0.00       0.00       1.21       3.75      10.11      13.86        0.01     0.00   0.924
  5284                      15.00       0.00       0.00       1.21       3.75      10.11      13.86        0.01     0.00   0.924
  5285                      15.00       0.00       0.00       1.21       3.75      10.11      13.86        0.01     0.00   0.924
  5286                      15.00       0.00       0.00       1.21       3.75      10.11      13.86        0.01     0.00   0.924
  5287                      15.00       0.00       0.00       1.21       3.75      10.11      13.86        0.01     0.00   0.924
  5288                      15.00       0.00       0.00       1.21       3.75      10.11      13.86        0.01     0.00   0.924
  5289                      15.00       0.00       0.00       1.21       3.75      10.11      13.86        0.01     0.00   0.924
  5290                      15.00       0.00       0.00       1.21       3.75      10.11      13.86        0.01     0.00   0.924
  5291                      15.00       0.00       0.00       1.21       3.75      10.11      13.86        0.01     0.00   0.924
  5292                      15.00       0.00       0.00       1.21       3.75      10.11      13.86        0.01     0.00   0.924
  5293                      15.00       0.00       0.00       1.21       3.75      10.11      13.86        0.01     0.00   0.924
  5294                      15.00       0.00       0.00       1.21       3.75      10.11      13.86        0.01     0.00   0.924
  5295                      15.00       0.00       0.00       1.21       3.75      10.11      13.86        0.01     0.00   0.924
  5296                      15.00       0.00       0.00       1.21       3.75      10.11      13.86        0.01     0.00   0.924
  5297                      15.00       0.00       0.00       1.21       3.75      10.11      13.86        0.01     0.00   0.924
  5298                      15.00       0.00       0.00       1.21       3.75      10.11      13.86        0.01     0.00   0.924
  5299                      15.00       0.00       0.00       1.21       3.75      10.11      13.86        0.01     0.00   0.924
  5300                      15.00       0.00       0.00       1.21       3.75      10.11      13.86        0.01     0.00   0.924
  5301                      15.00       0.00       0.00       1.21       3.75      10.11      13.86        0.01     0.00   0.924
  5302                      15.00       0.00       0.00       1.21       3.75      10.11      13.86        0.01     0.00   0.924
  5303                      15.00       0.00       0.00       1.21       3.75      10.11      13.86        0.01     0.00   0.924
  5304                      15.00       0.00       0.00       1.21       3.75      10.11      13.86        0.01     0.00   0.924
  5305                      15.00       0.00       0.00       1.21       3.75      10.11      13.86        0.01     0.00   0.924
  5306                      15.00       0.00       0.00       1.21       3.75      10.11      13.86        0.01     0.00   0.924
  5307                      15.00       0.00       0.00       1.21       3.75      10.11      13.86        0.01     0.00   0.924
  5308                      15.00       0.00       0.00       1.21       3.75      10.11      13.86        0.01     0.00   0.924
  5309                      15.00       0.00       0.00       1.21       3.75      10.11      13.86        0.01     0.00   0.924
  5310                      15.00       0.00       0.00       1.21       3.75      10.11      13.86        0.01     0.00   0.924
  5311                      15.00       0.00       0.00       1.21       3.75      10.11      13.86        0.01     0.00   0.924
  5312                      15.00       0.00       0.00       1.21       3.75      10.11      13.86        0.01     0.00   0.924
  5313                      15.00       0.00       0.00       1.21       3.75      10.11      13.86        0.01     0.00   0.924
  5314                      15.00       0.00       0.00       1.21       3.75      10.11      13.86        0.01     0.00   0.924
  5315                      15.00       0.00       0.00       1.21       3.75      10.11      13.86        0.01     0.00   0.924
  5316                      15.00       0.00       0.00       1.21       3.75      10.11      13.86        0.01     0.00   0.924
  5317                      15.00       0.00       0.00       1.21       3.75      10.11      13.86        0.01     0.00   0.924
  5318                      15.00       0.00       0.00       1.21       3.75      10.11      13.86        0.01     0.00   0.924
  5319                      15.00       0.00       0.00       1.21       3.75      10.11      13.86        0.01     0.00   0.924
  5320                      15.00       0.00       0.00       1.21       3.75      10.11      13.86        0.01     0.00   0.924
  5321                      15.00       0.00       0.00       1.21       3.75      10.11      13.86        0.01     0.00   0.924
  5322                      15.00       0.00       0.00       1.21       3.75      10.11      13.86        0.01     0.00   0.924
  5323                      15.00       0.00       0.00       1.21       3.75      10.11      13.86        0.01     0.00   0.924
  5324                      15.00       0.00       0.00       1.21       3.75      10.11      13.86        0.01     0.00   0.924
  5325                      15.00       0.00       0.00       1.21       3.75      10.11      13.86        0.01     0.00   0.924
  5326                      15.00       0.00       0.00       1.21       3.75      10.11      13.86        0.01     0.00   0.924
  5327                      15.00       0.00       0.00       1.21       3.75      10.11      13.86        0.01     0.00   0.924
  5328                      15.00       0.00       0.00       1.21       3.75      10.11      13.86        0.01     0.00   0.924
  5329                      15.00       0.00       0.00       1.21       3.75      10.11      13.86        0.01     0.00   0.924
  5330                      15.00       0.00       0.00       1.21       3.75      10.11      13.86        0.01     0.00   0.924
  5333                      15.00       0.00       0.00       1.21       3.75      10.11      13.86        0.01     0.00   0.924
  5334                      15.00       0.00       0.00       1.21       3.75      10.11      13.86        0.01     0.00   0.924
  6040                      15.00       0.00       0.00       1.21       3.75      10.11      13.86        0.01     0.00   0.924
  6041                      15.00       0.00       0.00       1.21       3.75      10.11      13.86        0.01     0.00   0.924
  6162                      15.00       0.00       0.00       1.21       3.75      10.11      13.86        0.01     0.00   0.924
  7207                      15.00       0.00       0.00       1.21       3.75      10.11      13.86        0.01     0.00   0.924
  7208                      15.00       0.00       0.00       1.21       3.75      10.11      13.86        0.01     0.00   0.924
  7213                      15.00       0.00       0.00       1.21       3.75      10.11      13.86        0.01     0.00   0.924
  7214                      15.00       0.00       0.00       1.21       3.75      10.11      13.86        0.01     0.00   0.924
  7219                      15.00       0.00       0.00       1.21       3.75      10.11      13.86        0.01     0.00   0.924
  7220                      15.00       0.00       0.00       1.21       3.75      10.11      13.86        0.01     0.00   0.924
  7221                      15.00       0.00       0.00       1.21       3.75      10.11      13.86        0.01     0.00   0.924
  7225                      15.00       0.00       0.00       1.21       3.75      10.11      13.86        0.01     0.00   0.924
  7229                      15.00       0.00       0.00       1.21       3.75      10.11      13.86        0.01     0.00   0.924
  7231                      15.00       0.00       0.00       1.21       3.75      10.11      13.86        0.01     0.00   0.924
  7268                      15.00       0.00       0.00       1.21       3.75      10.11      13.86        0.01     0.00   0.924
  7269                      15.00       0.00       0.00       1.21       3.75      10.11      13.86        0.01     0.00   0.924
  7271                      15.00       0.00       0.00       1.21       3.75      10.11      13.86        0.01     0.00   0.924
  7272                      15.00       0.00       0.00       1.21       3.75      10.11      13.86        0.01     0.00   0.924
  7273                      15.00       0.00       0.00       1.21       3.75      10.11      13.86        0.01     0.00   0.924
  7433                      15.00       0.00       0.00       1.21       3.75      10.11      13.86        0.01     0.00   0.924
  7434                      15.00       0.00       0.00       1.21       3.75      10.11      13.86        0.01     0.00   0.924
  7544                      15.00       0.00       0.00       1.21       3.75      10.11      13.86        0.01     0.00   0.924
  7545                      15.00       0.00       0.00       1.21       3.75      10.11      13.86        0.01     0.00   0.924
  8737                      15.00       0.00       0.00       1.21       3.75      10.11      13.86        0.01     0.00   0.924
  8818                      15.00       0.00       0.00       1.21       3.75      10.11      13.86        0.01     0.00   0.924
  9942                      15.00       0.00       0.00       1.21       3.75      10.11      13.86        0.01     0.00   0.924
  9957                      15.00       0.00       0.00       1.21       3.75      10.11      13.86        0.01     0.00   0.924
  4399                      15.00       0.00       0.00       1.13       3.75      10.21      13.96        0.00     0.00   0.930
  4400                      15.00       0.00       0.00       1.13       3.75      10.21      13.96        0.00     0.00   0.930
  4401                      15.00       0.00       0.00       1.13       3.75      10.21      13.96        0.00     0.00   0.930
  4402                      15.00       0.00       0.00       1.13       3.75      10.21      13.96        0.00     0.00   0.930
  4403                      15.00       0.00       0.00       1.13       3.75      10.21      13.96        0.00     0.00   0.930
  4404                      15.00       0.00       0.00       1.13       3.75      10.21      13.96        0.00     0.00   0.930
  4405                      15.00       0.00       0.00       1.13       3.75      10.21      13.96        0.00     0.00   0.930
  4406                      15.00       0.00       0.00       1.13       3.75      10.21      13.96        0.00     0.00   0.930
  4407                      15.00       0.00       0.00       1.13       3.75      10.21      13.96        0.00     0.00   0.930
  4408                      15.00       0.00       0.00       1.13       3.75      10.21      13.96        0.00     0.00   0.930
  4409                      15.00       0.00       0.00       1.13       3.75      10.21      13.96        0.00     0.00   0.930
  4410                      15.00       0.00       0.00       1.13       3.75      10.21      13.96        0.00     0.00   0.930
  4411                      15.00       0.00       0.00       1.13       3.75      10.21      13.96        0.00     0.00   0.930
  4412                      15.00       0.00       0.00       1.13       3.75      10.21      13.96        0.00     0.00   0.930
  4423                      15.00       0.00       0.00       1.13       3.75      10.21      13.96        0.00     0.00   0.930
  4424                      15.00       0.00       0.00       1.13       3.75      10.21      13.96        0.00     0.00   0.930
  4425                      15.00       0.00       0.00       1.13       3.75      10.21      13.96        0.00     0.00   0.930
  4426                      15.00       0.00       0.00       1.13       3.75      10.21      13.96        0.00     0.00   0.930
  4427                      15.00       0.00       0.00       1.13       3.75      10.21      13.96        0.00     0.00   0.930
  4428                      15.00       0.00       0.00       1.13       3.75      10.21      13.96        0.00     0.00   0.930
  4455                      15.00       0.00       0.00       1.13       3.75      10.21      13.96        0.00     0.00   0.930
  4456                      15.00       0.00       0.00       1.13       3.75      10.21      13.96        0.00     0.00   0.930
  4457                      15.00       0.00       0.00       1.13       3.75      10.21      13.96        0.00     0.00   0.930
  4458                      15.00       0.00       0.00       1.13       3.75      10.21      13.96        0.00     0.00   0.930
  4459                      15.00       0.00       0.00       1.13       3.75      10.21      13.96        0.00     0.00   0.930
  4460                      15.00       0.00       0.00       1.13       3.75      10.21      13.96        0.00     0.00   0.930
  4461                      15.00       0.00       0.00       1.13       3.75      10.21      13.96        0.00     0.00   0.930
  4464                      15.00       0.00       0.00       1.13       3.75      10.21      13.96        0.00     0.00   0.930
  4465                      15.00       0.00       0.00       1.13       3.75      10.21      13.96        0.00     0.00   0.930
  4466                      15.00       0.00       0.00       1.13       3.75      10.21      13.96        0.00     0.00   0.930
  4467                      15.00       0.00       0.00       1.13       3.75      10.21      13.96        0.00     0.00   0.930
  4468                      15.00       0.00       0.00       1.13       3.75      10.21      13.96        0.00     0.00   0.930
  4469                      15.00       0.00       0.00       1.13       3.75      10.21      13.96        0.00     0.00   0.930
  4470                      15.00       0.00       0.00       1.13       3.75      10.21      13.96        0.00     0.00   0.930
  4471                      15.00       0.00       0.00       1.13       3.75      10.21      13.96        0.00     0.00   0.930
  4472                      15.00       0.00       0.00       1.13       3.75      10.21      13.96        0.00     0.00   0.930
  4473                      15.00       0.00       0.00       1.13       3.75      10.21      13.96        0.00     0.00   0.930
  4474                      15.00       0.00       0.00       1.13       3.75      10.21      13.96        0.00     0.00   0.930
  4628                      15.00       0.00       0.00       1.13       3.75      10.21      13.96        0.00     0.00   0.930
  4631                      15.00       0.00       0.00       1.13       3.75      10.21      13.96        0.00     0.00   0.930
  4632                      15.00       0.00       0.00       1.13       3.75      10.21      13.96        0.00     0.00   0.930
  4633                      15.00       0.00       0.00       1.13       3.75      10.21      13.96        0.00     0.00   0.930
  4634                      15.00       0.00       0.00       1.13       3.75      10.21      13.96        0.00     0.00   0.930
  4637                      15.00       0.00       0.00       1.13       3.75      10.21      13.96        0.00     0.00   0.930
  4686                      15.00       0.00       0.00       1.13       3.75      10.21      13.96        0.00     0.00   0.930
  4687                      15.00       0.00       0.00       1.13       3.75      10.21      13.96        0.00     0.00   0.930
  4688                      15.00       0.00       0.00       1.13       3.75      10.21      13.96        0.00     0.00   0.930
  5032                      15.00       0.00       0.00       1.13       3.75      10.21      13.96        0.00     0.00   0.930
  5331                      15.00       0.00       0.00       1.13       3.75      10.21      13.96        0.00     0.00   0.930
  5332                      15.00       0.00       0.00       1.13       3.75      10.21      13.96        0.00     0.00   0.930
  5335                      15.00       0.00       0.00       1.13       3.75      10.21      13.96        0.00     0.00   0.930
  5336                      15.00       0.00       0.00       1.13       3.75      10.21      13.96        0.00     0.00   0.930
  5337                      15.00       0.00       0.00       1.13       3.75      10.21      13.96        0.00     0.00   0.930
  5338                      15.00       0.00       0.00       1.13       3.75      10.21      13.96        0.00     0.00   0.930
  5339                      15.00       0.00       0.00       1.13       3.75      10.21      13.96        0.00     0.00   0.930
  5340                      15.00       0.00       0.00       1.13       3.75      10.21      13.96        0.00     0.00   0.930
  5341                      15.00       0.00       0.00       1.13       3.75      10.21      13.96        0.00     0.00   0.930
  5342                      15.00       0.00       0.00       1.13       3.75      10.21      13.96        0.00     0.00   0.930
  5343                      15.00       0.00       0.00       1.13       3.75      10.21      13.96        0.00     0.00   0.930
  5344                      15.00       0.00       0.00       1.13       3.75      10.21      13.96        0.00     0.00   0.930
  5345                      15.00       0.00       0.00       1.13       3.75      10.21      13.96        0.00     0.00   0.930
  5346                      15.00       0.00       0.00       1.13       3.75      10.21      13.96        0.00     0.00   0.930
  5347                      15.00       0.00       0.00       1.13       3.75      10.21      13.96        0.00     0.00   0.930
  5348                      15.00       0.00       0.00       1.13       3.75      10.21      13.96        0.00     0.00   0.930
  5349                      15.00       0.00       0.00       1.13       3.75      10.21      13.96        0.00     0.00   0.930
  5350                      15.00       0.00       0.00       1.13       3.75      10.21      13.96        0.00     0.00   0.930
  6088                      15.00       0.00       0.00       1.13       3.75      10.21      13.96        0.00     0.00   0.930
  7275                      15.00       0.00       0.00       1.13       3.75      10.21      13.96        0.00     0.00   0.930
  9955                      15.00       0.00       0.00       1.13       3.75      10.21      13.96        0.00     0.00   0.930
  9956                      15.00       0.00       0.00       1.13       3.75      10.21      13.96        0.00     0.00   0.930
  
  
  ****************************
  Subcatchment Washoff Summary
  ****************************
  
  ----------------------------------
                                 COD
  Subcatchment                    kg
  ----------------------------------
  2707                         3.646
  2708                         3.646
  2709                         3.646
  2710                         3.646
  2712                         3.646
  2713                         3.646
  2714                         3.646
  2715                         3.646
  2716                         3.646
  2717                         3.646
  2718                         3.646
  2719                         3.646
  2721                         3.646
  2722                         3.646
  2723                         3.646
  2724                         3.646
  2725                         3.646
  2726                         3.646
  2727                         3.646
  2728                         3.646
  2729                         3.646
  2730                         3.646
  2731                         3.646
  2732                         3.646
  2733                         3.646
  2734                         3.646
  2735                         3.646
  2736                         3.646
  2737                         3.646
  2738                         3.646
  2739                         3.646
  2740                         3.646
  2741                         3.646
  2742                         3.646
  2743                         3.646
  2744                         3.646
  2745                         3.646
  2746                         3.646
  2747                         3.646
  2748                         3.646
  2749                         3.646
  2750                         3.646
  2751                         3.646
  2752                         3.646
  2753                         3.646
  2754                         3.646
  2755                         3.646
  2756                         3.646
  2964                         3.646
  2969                         3.646
  2970                         3.646
  2974                         3.646
  2975                         3.646
  2976                         3.646
  2977                         3.646
  2978                         3.646
  2979                         3.646
  2980                         3.646
  2981                         3.646
  2982                         3.646
  2984                         3.646
  2985                         3.646
  3925                         3.646
  3926                         3.646
  3927                         3.646
  3928                         3.646
  3929                         3.646
  3930                         3.646
  3931                         3.646
  3932                         3.646
  3933                         3.646
  3934                         3.646
  3935                         3.646
  3936                         3.646
  3937                         3.646
  3938                         3.646
  3939                         3.646
  3940                         3.646
  3941                         3.646
  3942                         3.646
  3943                         3.646
  3944                         3.646
  3945                         3.646
  3946                         3.646
  3947                         3.646
  3948                         3.646
  3949                         3.646
  3950                         3.646
  3951                         3.646
  3952                         3.646
  3953                         3.646
  3954                         3.646
  3955                         3.646
  3956                         3.646
  4032                         3.646
  4033                         3.646
  4041                         3.646
  4051                         3.646
  4055                         3.646
  4056                         3.646
  4058                         3.646
  4385                         3.646
  4386                         3.646
  4387                         3.646
  4388                         3.646
  4389                         3.646
  4390                         3.646
  4391                         3.646
  4392                         3.646
  4393                         3.646
  4394                         3.646
  4395                         3.646
  4396                         3.646
  4397                         3.646
  4398                         3.646
  4429                         3.646
  4430                         3.646
  4431                         3.646
  4432                         3.646
  4433                         3.646
  4434                         3.646
  4435                         3.646
  4436                         3.646
  4437                         3.646
  4438                         3.646
  4439                         3.646
  4440                         3.646
  4441                         3.646
  4442                         3.646
  4443                         3.646
  4444                         3.646
  4445                         3.646
  4446                         3.646
  4447                         3.646
  4448                         3.646
  4449                         3.646
  4450                         3.646
  4451                         3.646
  4452                         3.646
  4453                         3.646
  4454                         3.646
  4462                         3.646
  4463                         3.646
  4563                         3.646
  4564                         3.646
  4565                         3.646
  4566                         3.646
  4567                         3.646
  4568                         3.646
  4569                         3.646
  4570                         3.646
  4571                         3.646
  4572                         3.646
  4573                         3.646
  4574                         3.646
  4575                         3.646
  4576                         3.646
  4577                         3.646
  4578                         3.646
  4579                         3.646
  4580                         3.646
  4581                         3.646
  4624                         3.646
  4625                         3.646
  4644                         3.646
  4645                         3.646
  4646                         3.646
  4679                         3.646
  4680                         3.646
  4681                         3.646
  4682                         3.646
  4683                         3.646
  4711                         3.646
  4712                         3.646
  4713                         3.646
  4714                         3.646
  4715                         3.646
  4716                         3.646
  4717                         3.646
  4718                         3.646
  4722                         3.646
  4760                         3.646
  4761                         3.646
  4765                         3.646
  4766                         3.646
  4767                         3.646
  4768                         3.646
  4769                         3.646
  4855                         3.646
  4856                         3.646
  5284                         3.646
  5285                         3.646
  5286                         3.646
  5287                         3.646
  5288                         3.646
  5289                         3.646
  5290                         3.646
  5291                         3.646
  5292                         3.646
  5293                         3.646
  5294                         3.646
  5295                         3.646
  5296                         3.646
  5297                         3.646
  5298                         3.646
  5299                         3.646
  5300                         3.646
  5301                         3.646
  5302                         3.646
  5303                         3.646
  5304                         3.646
  5305                         3.646
  5306                         3.646
  5307                         3.646
  5308                         3.646
  5309                         3.646
  5310                         3.646
  5311                         3.646
  5312                         3.646
  5313                         3.646
  5314                         3.646
  5315                         3.646
  5316                         3.646
  5317                         3.646
  5318                         3.646
  5319                         3.646
  5320                         3.646
  5321                         3.646
  5322                         3.646
  5323                         3.646
  5324                         3.646
  5325                         3.646
  5326                         3.646
  5327                         3.646
  5328                         3.646
  5329                         3.646
  5330                         3.646
  5333                         3.646
  5334                         3.646
  6040                         3.646
  6041                         3.646
  6162                         3.646
  7207                         3.646
  7208                         3.646
  7213                         3.646
  7214                         3.646
  7219                         3.646
  7220                         3.646
  7221                         3.646
  7225                         3.646
  7229                         3.646
  7231                         3.646
  7268                         3.646
  7269                         3.646
  7271                         3.646
  7272                         3.646
  7273                         3.646
  7433                         3.646
  7434                         3.646
  7544                         3.646
  7545                         3.646
  8737                         3.646
  8818                         3.646
  9942                         3.646
  9957                         3.646
  4399                         1.101
  4400                         1.101
  4401                         1.101
  4402                         1.101
  4403                         1.101
  4404                         1.101
  4405                         1.101
  4406                         1.101
  4407                         1.101
  4408                         1.101
  4409                         1.101
  4410                         1.101
  4411                         1.101
  4412                         1.101
  4423                         1.101
  4424                         1.101
  4425                         1.101
  4426                         1.101
  4427                         1.101
  4428                         1.101
  4455                         1.101
  4456                         1.101
  4457                         1.101
  4458                         1.101
  4459                         1.101
  4460                         1.101
  4461                         1.101
  4464                         1.101
  4465                         1.101
  4466                         1.101
  4467                         1.101
  4468                         1.101
  4469                         1.101
  4470                         1.101
  4471                         1.101
  4472                         1.101
  4473                         1.101
  4474                         1.101
  4628                         1.101
  4631                         1.101
  4632                         1.101
  4633                         1.101
  4634                         1.101
  4637                         1.101
  4686                         1.101
  4687                         1.101
  4688                         1.101
  5032                         1.101
  5331                         1.101
  5332                         1.101
  5335                         1.101
  5336                         1.101
  5337                         1.101
  5338                         1.101
  5339                         1.101
  5340                         1.101
  5341                         1.101
  5342                         1.101
  5343                         1.101
  5344                         1.101
  5345                         1.101
  5346                         1.101
  5347                         1.101
  5348                         1.101
  5349                         1.101
  5350                         1.101
  6088                         1.101
  7275                         1.101
  9955                         1.101
  9956                         1.101
  ----------------------------------
  System                    1043.385
  
  
  ******************
  Node Depth Summary
  ******************
  
  ---------------------------------------------------------------------------------
                                 Average  Maximum  Maximum  Time of Max    Reported
                                   Depth    Depth      HGL   Occurrence   Max Depth
  Node                 Type       Meters   Meters   Meters  days hr:min      Meters
  ---------------------------------------------------------------------------------
<<<<<<< HEAD
  Node_02706           JUNCTION     1.58     1.69    98.53     0  02:15        0.00
=======
<<<<<<< HEAD
  Node_02706           JUNCTION     1.58     1.69    98.53     0  02:12        0.00
=======
  Node_02706           JUNCTION     1.58     1.69    98.53     0  02:13        0.00
>>>>>>> b040755ab93617f94f1ab7a7036927f36e763e5a
>>>>>>> ebd46bdc835ac17077bb70c3b6f6db3a4ee81ecd
  Node_02707           JUNCTION     0.21     0.24    99.67     0  02:45        0.00
  Node_02708           JUNCTION     0.35     0.38   100.14     0  02:00        0.00
  Node_02709           JUNCTION     0.41     0.43   100.07     0  02:00        0.00
  Node_02711           JUNCTION     0.04     0.11   100.02     0  02:45        0.00
  Node_02712           JUNCTION     0.04     0.11   100.01     0  02:45        0.00
  Node_02713           JUNCTION     0.08     0.15   100.00     0  02:45        0.00
  Node_02714           JUNCTION     0.01     0.03   100.43     0  02:45        0.00
  Node_02715           JUNCTION     0.05     0.12    99.93     0  02:45        0.00
  Node_02716           JUNCTION     0.05     0.13    99.85     0  02:45        0.00
  Node_02717           JUNCTION     0.07     0.17    99.81     0  02:45        0.00
  Node_02718           JUNCTION     0.06     0.15    99.75     0  02:45        0.00
  Node_02720           JUNCTION     0.06     0.16    99.72     0  02:45        0.00
  Node_02721           JUNCTION     0.33     0.44    99.68     0  02:45        0.00
  Node_02722           JUNCTION     0.12     0.15   101.95     0  02:45        0.00
  Node_02723           JUNCTION     0.25     0.36    99.66     0  02:45        0.00
  Node_02724           JUNCTION     0.08     0.19    99.61     0  02:45        0.00
  Node_02725           JUNCTION     0.08     0.19    99.56     0  02:45        0.00
  Node_02726           JUNCTION     0.12     0.22    99.49     0  02:45        0.00
<<<<<<< HEAD
=======
<<<<<<< HEAD
>>>>>>> ebd46bdc835ac17077bb70c3b6f6db3a4ee81ecd
  Node_02727           JUNCTION     0.17     0.32    99.44     0  02:45        0.00
  Node_02728           JUNCTION     0.05     0.06   100.14     0  02:45        0.00
  Node_02729           JUNCTION     0.19     0.36    99.42     0  02:44        0.00
  Node_02730           JUNCTION     0.19     0.37    99.40     0  02:44        0.00
  Node_02731           JUNCTION     0.59     0.79    99.38     0  02:43        0.00
<<<<<<< HEAD
  Node_02732           JUNCTION     0.15     0.35    99.37     0  02:44        0.00
  Node_02733           JUNCTION     0.14     0.35    99.36     0  02:44        0.00
  Node_02734           JUNCTION     0.42     0.63    99.34     0  02:43        0.00
  Node_02735           JUNCTION     0.31     0.53    99.34     0  02:44        0.00
  Node_02736           JUNCTION     0.50     0.72    99.33     0  02:44        0.00
  Node_02737           JUNCTION     0.47     0.69    99.31     0  02:43        0.00
  Node_02738           JUNCTION     0.30     0.52    99.29     0  02:44        0.00
  Node_02739           JUNCTION     0.16     0.39    99.26     0  02:45        0.00
  Node_02740           JUNCTION     0.17     0.40    99.24     0  02:45        0.00
  Node_02741           JUNCTION     0.04     0.07    99.37     0  02:00        0.00
  Node_02742           JUNCTION     0.17     0.41    99.21     0  02:45        0.00
=======
  Node_02732           JUNCTION     0.15     0.35    99.37     0  02:42        0.00
  Node_02733           JUNCTION     0.14     0.35    99.36     0  02:42        0.00
  Node_02734           JUNCTION     0.42     0.63    99.34     0  02:43        0.00
  Node_02735           JUNCTION     0.31     0.53    99.34     0  02:43        0.00
  Node_02736           JUNCTION     0.50     0.72    99.33     0  02:44        0.00
=======
  Node_02727           JUNCTION     0.17     0.32    99.44     0  02:44        0.00
  Node_02728           JUNCTION     0.05     0.06   100.14     0  02:45        0.00
  Node_02729           JUNCTION     0.19     0.36    99.42     0  02:43        0.00
  Node_02730           JUNCTION     0.19     0.37    99.40     0  02:45        0.00
  Node_02731           JUNCTION     0.59     0.79    99.38     0  02:45        0.00
  Node_02732           JUNCTION     0.15     0.35    99.37     0  02:44        0.00
  Node_02733           JUNCTION     0.14     0.35    99.36     0  02:45        0.00
  Node_02734           JUNCTION     0.42     0.63    99.34     0  02:45        0.00
  Node_02735           JUNCTION     0.31     0.53    99.34     0  02:45        0.00
  Node_02736           JUNCTION     0.50     0.72    99.33     0  02:45        0.00
>>>>>>> b040755ab93617f94f1ab7a7036927f36e763e5a
  Node_02737           JUNCTION     0.47     0.69    99.31     0  02:44        0.00
  Node_02738           JUNCTION     0.30     0.52    99.29     0  02:45        0.00
  Node_02739           JUNCTION     0.16     0.39    99.26     0  02:45        0.00
  Node_02740           JUNCTION     0.17     0.40    99.24     0  02:45        0.00
  Node_02741           JUNCTION     0.04     0.07    99.37     0  02:00        0.00
<<<<<<< HEAD
  Node_02742           JUNCTION     0.17     0.41    99.21     0  02:45        0.00
=======
  Node_02742           JUNCTION     0.17     0.41    99.21     0  02:44        0.00
>>>>>>> b040755ab93617f94f1ab7a7036927f36e763e5a
>>>>>>> ebd46bdc835ac17077bb70c3b6f6db3a4ee81ecd
  Node_02743           JUNCTION     0.59     0.81    99.18     0  02:45        0.00
  Node_02744           JUNCTION     0.06     0.08    99.42     0  00:00        0.00
  Node_02745           JUNCTION     0.31     0.54    99.16     0  02:45        0.00
  Node_02746           JUNCTION     0.20     0.43    99.12     0  02:45        0.00
  Node_02747           JUNCTION     0.04     0.07   100.42     0  02:00        0.00
  Node_02748           JUNCTION     0.03     0.04   100.49     0  02:00        0.00
  Node_02749           JUNCTION     0.21     0.43    99.07     0  02:45        0.00
  Node_02750           JUNCTION     0.21     0.42    99.02     0  02:45        0.00
  Node_02751           JUNCTION     0.18     0.37    98.97     0  02:45        0.00
  Node_02752           JUNCTION     0.17     0.35    98.90     0  02:45        0.00
  Node_02753           JUNCTION     0.18     0.34    98.82     0  02:45        0.00
<<<<<<< HEAD
  Node_02754           JUNCTION     0.09     0.21    98.53     0  02:15        0.00
  Node_02755           JUNCTION     1.02     1.13    98.53     0  02:15        0.00
  Node_02963           JUNCTION     0.05     0.08    99.99     0  02:00        0.00
  Node_02968           JUNCTION     0.06     0.08   100.20     0  02:00        0.00
  Node_02969           JUNCTION     0.07     0.10    99.98     0  00:00        0.00
  Node_02973           JUNCTION     0.59     0.64    98.53     0  02:16        0.00
  Node_02974           JUNCTION     0.38     0.83    97.96     0  02:42        0.00
  Node_02975           JUNCTION     0.38     0.85    97.98     0  02:43        0.00
  Node_02976           JUNCTION     0.41     1.01    98.20     0  02:42        0.00
  Node_02977           JUNCTION     0.40     1.22    98.55     0  02:42        0.00
  Node_02978           JUNCTION     0.37     1.17    98.70     0  02:41        0.00
  Node_02979           JUNCTION     0.33     0.69    97.80     0  02:43        0.00
  Node_02980           JUNCTION     0.26     0.53    97.62     0  02:42        0.00
  Node_02981           JUNCTION     0.22     0.44    97.39     0  02:42        0.00
  Node_02983           JUNCTION     0.04     0.05   100.17     0  02:00        0.00
  Node_02984           JUNCTION     0.74     1.52    98.50     0  02:42        0.00
=======
  Node_02754           JUNCTION     0.09     0.21    98.53     0  02:12        0.00
  Node_02755           JUNCTION     1.02     1.13    98.53     0  02:12        0.00
  Node_02963           JUNCTION     0.05     0.08    99.99     0  02:00        0.00
  Node_02968           JUNCTION     0.06     0.08   100.20     0  02:00        0.00
  Node_02969           JUNCTION     0.07     0.10    99.98     0  00:00        0.00
  Node_02973           JUNCTION     0.59     0.64    98.53     0  02:13        0.00
<<<<<<< HEAD
  Node_02974           JUNCTION     0.38     0.83    97.96     0  02:31        0.00
  Node_02975           JUNCTION     0.38     0.85    97.99     0  02:31        0.00
  Node_02976           JUNCTION     0.41     1.02    98.21     0  02:33        0.00
  Node_02977           JUNCTION     0.41     1.23    98.57     0  02:34        0.00
  Node_02978           JUNCTION     0.37     1.19    98.72     0  02:36        0.00
  Node_02979           JUNCTION     0.33     0.69    97.81     0  02:41        0.00
  Node_02980           JUNCTION     0.26     0.53    97.62     0  02:31        0.00
  Node_02981           JUNCTION     0.22     0.44    97.39     0  02:31        0.00
  Node_02983           JUNCTION     0.04     0.05   100.17     0  02:00        0.00
  Node_02984           JUNCTION     0.74     1.53    98.51     0  02:31        0.00
=======
  Node_02974           JUNCTION     0.38     0.81    97.94     0  02:33        0.00
  Node_02975           JUNCTION     0.38     0.83    97.97     0  02:29        0.00
  Node_02976           JUNCTION     0.40     0.99    98.18     0  02:28        0.00
  Node_02977           JUNCTION     0.40     1.18    98.52     0  02:27        0.00
  Node_02978           JUNCTION     0.36     1.13    98.66     0  02:25        0.00
  Node_02979           JUNCTION     0.33     0.68    97.79     0  02:25        0.00
  Node_02980           JUNCTION     0.26     0.52    97.61     0  02:34        0.00
  Node_02981           JUNCTION     0.22     0.48    97.43     0  02:50        0.00
  Node_02983           JUNCTION     0.04     0.05   100.17     0  02:00        0.00
  Node_02984           JUNCTION     0.73     1.49    98.47     0  02:27        0.00
>>>>>>> b040755ab93617f94f1ab7a7036927f36e763e5a
>>>>>>> ebd46bdc835ac17077bb70c3b6f6db3a4ee81ecd
  Node_03924           JUNCTION     0.01     0.03   100.85     0  02:00        0.00
  Node_03925           JUNCTION     0.23     0.28   100.65     0  02:45        0.00
  Node_03926           JUNCTION     0.01     0.02   101.49     0  02:45        0.00
  Node_03927           JUNCTION     0.20     0.26   100.64     0  02:45        0.00
  Node_03928           JUNCTION     0.21     0.28   100.63     0  02:45        0.00
  Node_03929           JUNCTION     0.21     0.29   100.59     0  02:45        0.00
  Node_03930           JUNCTION     0.23     0.31   100.56     0  02:45        0.00
  Node_03931           JUNCTION     0.21     0.29   100.54     0  02:45        0.00
  Node_03932           JUNCTION     0.23     0.33   100.49     0  02:45        0.00
  Node_03933           JUNCTION     0.22     0.30   100.42     0  02:45        0.00
  Node_03934           JUNCTION     0.05     0.07   100.93     0  02:45        0.00
  Node_03935           JUNCTION     0.25     0.41   100.38     0  02:45        0.00
  Node_03936           JUNCTION     0.27     0.44   100.37     0  02:45        0.00
  Node_03937           JUNCTION     1.21     1.22   101.38     0  02:45        0.00
<<<<<<< HEAD
  Node_03938           JUNCTION     0.69     3.04   102.24     0  01:54        0.00
  Node_03939           JUNCTION     0.75     3.19   102.23     0  01:54        0.00
  Node_03940           JUNCTION     0.80     3.30   102.23     0  01:54        0.00
  Node_03941           JUNCTION     0.86     3.41   102.22     0  01:54        0.00
  Node_03942           JUNCTION     0.88     3.45   102.20     0  01:54        0.00
  Node_03943           JUNCTION     0.94     3.58   102.19     0  01:54        0.00
  Node_03944           JUNCTION     1.01     3.69   102.17     0  01:54        0.00
  Node_03945           JUNCTION     1.05     3.75   102.17     0  01:59        0.00
  Node_03946           JUNCTION     1.11     3.80   102.15     0  02:00        0.00
  Node_03947           JUNCTION     1.28     3.92   101.81     0  01:59        0.00
  Node_03948           JUNCTION     1.21     3.73   101.58     0  02:00        0.00
  Node_03949           JUNCTION     1.29     3.74   101.44     0  02:00        0.00
  Node_03950           JUNCTION     1.14     3.49   101.26     0  02:00        0.00
  Node_03951           JUNCTION     1.09     3.30   100.99     0  02:00        0.00
  Node_03952           JUNCTION     1.06     3.10   100.69     0  02:00        0.00
  Node_03953           JUNCTION     0.94     2.76   100.34     0  02:00        0.00
  Node_03954           JUNCTION     1.80     3.39    99.97     0  02:00        0.00
  Node_03955           JUNCTION     0.72     2.06    99.55     0  02:00        0.00
  Node_04031           JUNCTION     0.16     0.76   101.99     0  01:59        0.00
  Node_04032           JUNCTION     1.01     3.64   101.99     0  01:59        0.00
=======
  Node_03938           JUNCTION     0.69     3.04   102.23     0  01:54        0.00
  Node_03939           JUNCTION     0.75     3.19   102.23     0  01:54        0.00
  Node_03940           JUNCTION     0.80     3.30   102.23     0  01:54        0.00
  Node_03941           JUNCTION     0.86     3.41   102.22     0  01:54        0.00
<<<<<<< HEAD
  Node_03942           JUNCTION     0.88     3.46   102.21     0  02:36        0.00
  Node_03943           JUNCTION     0.94     3.58   102.19     0  01:54        0.00
  Node_03944           JUNCTION     1.01     3.69   102.17     0  01:54        0.00
  Node_03945           JUNCTION     1.05     3.75   102.17     0  02:27        0.00
  Node_03946           JUNCTION     1.11     3.80   102.16     0  02:34        0.00
  Node_03947           JUNCTION     1.28     3.92   101.81     0  02:09        0.00
  Node_03948           JUNCTION     1.21     3.74   101.59     0  02:03        0.00
  Node_03949           JUNCTION     1.29     3.75   101.45     0  02:40        0.00
  Node_03950           JUNCTION     1.14     3.50   101.27     0  02:41        0.00
  Node_03951           JUNCTION     1.09     3.31   101.00     0  02:03        0.00
  Node_03952           JUNCTION     1.06     3.10   100.69     0  02:40        0.00
  Node_03953           JUNCTION     0.94     2.76   100.34     0  02:41        0.00
  Node_03954           JUNCTION     1.80     3.39    99.97     0  02:41        0.00
  Node_03955           JUNCTION     0.72     2.07    99.56     0  02:42        0.00
  Node_04031           JUNCTION     0.16     0.77   102.00     0  02:16        0.00
  Node_04032           JUNCTION     1.01     3.65   102.00     0  02:19        0.00
=======
  Node_03942           JUNCTION     0.88     3.45   102.20     0  02:02        0.00
  Node_03943           JUNCTION     0.94     3.58   102.19     0  01:54        0.00
  Node_03944           JUNCTION     1.01     3.69   102.17     0  01:54        0.00
  Node_03945           JUNCTION     1.05     3.75   102.17     0  02:14        0.00
  Node_03946           JUNCTION     1.11     3.80   102.16     0  02:18        0.00
  Node_03947           JUNCTION     1.28     3.92   101.81     0  02:15        0.00
[...]
  Link_01816                 681.706
  Link_01817                   5.380
  Link_01818                 654.460
  Link_01819                 640.038
  Link_01820                   8.943
  Link_01821                  21.556
=======
  Link_01765                 106.311
  Link_01766                 110.239
  Link_01767                 166.656
  Link_01768                 170.632
  Link_01769                 174.371
  Link_01770                 178.325
  Link_01771                 182.330
  Link_01772                  19.358
  Link_01773                 205.917
  Link_01774                  26.837
  Link_01775                  52.609
  Link_01776                  49.001
  Link_01777                  45.292
  Link_01778                  41.642
  Link_01779                  37.967
  Link_01780                  34.244
  Link_01781                  30.523
  Link_01782                 250.479
  Link_01783                   7.214
  Link_01784                 262.081
  Link_01785                 266.807
  Link_01786                  57.467
  Link_01787                  28.606
  Link_01788                 357.526
  Link_01789                 362.427
  Link_01790                  12.508
  Link_01791                  10.822
  Link_01792                   8.994
  Link_01793                 396.148
  Link_01794                 400.999
  Link_01795                 405.673
  Link_01796                 410.291
  Link_01797                 414.894
  Link_01798                 889.745
  Link_01799                 883.104
  Link_01800                 895.301
  Link_01801                 433.462
  Link_01802                 851.974
  Link_01803                 877.082
  Link_01804                 753.207
  Link_01805                 747.904
  Link_01806                 742.435
  Link_01807                 736.809
  Link_01808                  10.739
  Link_01809                 721.421
  Link_01810                 712.005
  Link_01811                   3.629
  Link_01812                  48.415
  Link_01813                  39.377
  Link_01814                 687.552
  Link_01815                 681.570
  Link_01816                 670.441
  Link_01817                   5.379
  Link_01818                 643.425
  Link_01819                 629.192
  Link_01820                   8.959
  Link_01821                  21.578
>>>>>>> b040755ab93617f94f1ab7a7036927f36e763e5a
>>>>>>> ebd46bdc835ac17077bb70c3b6f6db3a4ee81ecd
  Link_01822                   4.640
  Link_01823                 130.739
  Link_01824                 129.234
  Link_01825                  39.856
  Link_01826                  41.097
  Link_01827                   1.099
  Link_01828                  43.474
  Link_01829                   4.624
  Link_01830                  49.459
  Link_01831                   1.099
  Link_01832                  51.863
<<<<<<< HEAD
  Link_01833                  53.117
  Link_01834                  55.655
  Link_01835                   1.099
  Link_01836                  30.083
=======
  Link_01833                  53.118
  Link_01834                  55.655
  Link_01835                   1.099
<<<<<<< HEAD
  Link_01836                  30.083
=======
  Link_01836                  30.084
>>>>>>> b040755ab93617f94f1ab7a7036927f36e763e5a
>>>>>>> ebd46bdc835ac17077bb70c3b6f6db3a4ee81ecd
  Link_01837                  18.968
  Link_01838                  20.287
  Link_01839                  28.755
  Link_01840                  27.607
  Link_01841                  26.470
  Link_01842                  22.459
  Link_01843                  20.104
  Link_01844                  18.960
<<<<<<< HEAD
  Link_02074                   7.179
  Link_02075                 121.715
  Link_02076                 134.756
  Link_02077                   9.616
  Link_02078                 148.569
  Link_02079                   8.900
  Link_02080                 161.488
  Link_02081                 165.421
  Link_02082                 169.359
  Link_02083                   8.963
  Link_02084                   7.200
  Link_02085                 448.319
  Link_02086                 439.002
  Link_02087                 434.151
  Link_02088                 428.342
  Link_02089                 422.992
  Link_02090                 400.477
  Link_02091                 396.161
  Link_02092                 391.538
  Link_02093                   7.149
  Link_02094                 374.214
  Link_02095                 369.420
  Link_02096                 334.263
  Link_02097                  14.219
  Link_02098                  16.100
  Link_02099                 329.607
  Link_02100                 324.930
  Link_02101                  12.468
  Link_02102                 303.048
  Link_02103                 286.093
  Link_02104                  14.476
  Link_02105                 234.295
  Link_02106                  10.735
  Link_02107                   3.615
  Link_02108                 224.576
  Link_02109                 221.506
  Link_02110                 189.320
  Link_02111                 126.648
  Link_02112                  12.512
  Link_02113                  94.830
  Link_02114                  22.604
  Link_02115                  21.369
  Link_02116                  20.214
=======
<<<<<<< HEAD
  Link_02074                   7.179
  Link_02075                 122.103
  Link_02076                 135.158
  Link_02077                   9.616
  Link_02078                 148.973
  Link_02079                   8.899
  Link_02080                 161.969
  Link_02081                 165.956
  Link_02082                 169.874
  Link_02083                   8.963
  Link_02084                   7.200
  Link_02085                 455.023
  Link_02086                 445.518
  Link_02087                 440.834
  Link_02088                 434.986
  Link_02089                 429.266
  Link_02090                 406.802
  Link_02091                 402.196
  Link_02092                 397.500
  Link_02093                   7.159
  Link_02094                 379.878
  Link_02095                 375.066
  Link_02096                 339.932
  Link_02097                  14.213
  Link_02098                  16.088
  Link_02099                 335.268
  Link_02100                 330.595
  Link_02101                  12.486
  Link_02102                 308.699
  Link_02103                 291.725
  Link_02104                  14.471
  Link_02105                 239.478
  Link_02106                  10.728
  Link_02107                   3.615
  Link_02108                 230.069
  Link_02109                 227.110
  Link_02110                 189.323
  Link_02111                 126.647
  Link_02112                  12.513
  Link_02113                  94.830
  Link_02114                  22.605
  Link_02115                  21.369
  Link_02116                  20.213
=======
  Link_02074                   7.187
  Link_02075                 121.988
  Link_02076                 135.030
  Link_02077                   9.616
  Link_02078                 148.812
  Link_02079                   8.899
  Link_02080                 161.785
  Link_02081                 165.776
  Link_02082                 169.690
  Link_02083                   8.963
  Link_02084                   7.200
  Link_02085                 444.723
  Link_02086                 435.266
  Link_02087                 430.484
  Link_02088                 424.827
  Link_02089                 419.345
  Link_02090                 397.071
  Link_02091                 392.667
  Link_02092                 388.041
  Link_02093                   7.145
  Link_02094                 370.883
  Link_02095                 366.239
  Link_02096                 331.398
  Link_02097                  14.231
  Link_02098                  16.114
  Link_02099                 327.108
  Link_02100                 322.920
  Link_02101                  12.450
  Link_02102                 301.798
  Link_02103                 285.043
  Link_02104                  14.388
  Link_02105                 231.700
  Link_02106                  10.736
  Link_02107                   3.615
  Link_02108                 221.397
  Link_02109                 217.740
  Link_02110                 189.323
  Link_02111                 126.647
  Link_02112                  12.512
  Link_02113                  94.830
  Link_02114                  22.605
  Link_02115                  21.369
  Link_02116                  20.214
>>>>>>> b040755ab93617f94f1ab7a7036927f36e763e5a
>>>>>>> ebd46bdc835ac17077bb70c3b6f6db3a4ee81ecd
  Link_02117                  19.089
  Link_02118                  17.946
  Link_02123                   4.644
  Link_02124                   5.773
  Link_02125                   6.909
  Link_02126                   8.015
<<<<<<< HEAD
  Link_02127                  16.822
=======
<<<<<<< HEAD
  Link_02127                  16.821
=======
  Link_02127                  16.822
>>>>>>> b040755ab93617f94f1ab7a7036927f36e763e5a
>>>>>>> ebd46bdc835ac17077bb70c3b6f6db3a4ee81ecd
  Link_02128                  15.681
  Link_02129                  14.566
  Link_02130                  13.443
  Link_02131                  12.293
  Link_02132                  11.132
  Link_02133                   9.974
  Link_02134                  96.102
  Link_02135                  97.325
<<<<<<< HEAD
  Link_02136                 103.233
  Link_02137                   4.645
  Link_02138                 115.346
  Link_02139                 114.088
  Link_02140                 112.768
  Link_02141                 111.569
  Link_02142                 110.270
  Link_02143                 104.439
  Link_02383                   3.649
  Link_02384                   7.178
  Link_02385                  10.896
  Link_02386                  21.533
  Link_02387                  36.055
  Link_02388                  39.758
  Link_02389                  21.390
  Link_02390                  43.599
  Link_02391                  68.633
  Link_02392                  25.252
  Link_02393                  97.791
  Link_05459                  31.065
  Link_05460                  77.474
  Link_05461                 102.183
  Link_05462                 237.149
  Link_05463                 391.008
  Link_05464                  14.776
  Link_05496                1340.341
  Link_05662                  25.393
  Link_05663                   5.390
  Link_05664                  44.726
  Link_05665                 374.611
  Link_05677                 291.601
  Link_05678                  14.433
  Link_05720                 852.111
  Link_05721                 710.065
  Link_05722                  12.513
  Link_05723                  70.935
  Link_05725                   9.177
  Link_05726                 452.825
  Link_05727                   5.351
  Link_05728                 379.680
  Link_05729                 307.620
  Link_05730                 187.960
  Link_05731                 127.815
  Link_05732                 125.459
  Link_05742                  21.594
  Link_05743                 101.598
  Link_05744                 173.691
=======
<<<<<<< HEAD
  Link_02136                 103.232
=======
  Link_02136                 103.233
>>>>>>> b040755ab93617f94f1ab7a7036927f36e763e5a
  Link_02137                   4.645
  Link_02138                 115.346
  Link_02139                 114.087
  Link_02140                 112.768
  Link_02141                 111.568
  Link_02142                 110.270
  Link_02143                 104.439
<<<<<<< HEAD
  Link_02383                   3.643
  Link_02384                   7.270
  Link_02385                  11.247
  Link_02386                  21.532
  Link_02387                  36.158
  Link_02388                  39.927
  Link_02389                  21.381
  Link_02390                  43.801
  Link_02391                  68.900
  Link_02392                  25.262
  Link_02393                  98.053
  Link_05459                  31.065
  Link_05460                  77.474
  Link_05461                 102.183
  Link_05462                 237.159
  Link_05463                 391.020
  Link_05464                  14.773
  Link_05496                1349.669
  Link_05662                  25.393
  Link_05663                   5.390
  Link_05664                  44.691
  Link_05665                 374.755
  Link_05677                 291.796
  Link_05678                  14.439
  Link_05720                 860.990
  Link_05721                 717.853
  Link_05722                  12.513
  Link_05723                  70.935
  Link_05725                   9.177
  Link_05726                 460.038
  Link_05727                   5.388
  Link_05728                 385.561
  Link_05729                 313.280
  Link_05730                 187.960
  Link_05731                 127.815
  Link_05732                 125.459
  Link_05742                  21.593
  Link_05743                 101.994
  Link_05744                 174.191
=======
  Link_02383                   3.649
  Link_02384                   7.202
  Link_02385                  10.940
  Link_02386                  21.551
  Link_02387                  36.105
  Link_02388                  39.861
  Link_02389                  21.393
  Link_02390                  43.736
  Link_02391                  68.811
  Link_02392                  25.288
  Link_02393                  97.966
  Link_05459                  31.065
  Link_05460                  77.474
  Link_05461                 102.183
  Link_05462                 237.155
  Link_05463                 391.015
  Link_05464                  14.741
  Link_05496                1335.137
  Link_05662                  25.393
  Link_05663                   5.390
  Link_05664                  44.770
  Link_05665                 375.455
  Link_05677                 292.418
  Link_05678                  14.432
  Link_05720                 846.983
  Link_05721                 705.604
  Link_05722                  12.513
  Link_05723                  70.935
  Link_05725                   9.177
  Link_05726                 449.332
  Link_05727                   5.394
  Link_05728                 376.124
  Link_05729                 306.043
  Link_05730                 187.960
  Link_05731                 127.815
  Link_05732                 125.459
  Link_05742                  21.638
  Link_05743                 101.889
  Link_05744                 174.030
>>>>>>> b040755ab93617f94f1ab7a7036927f36e763e5a
>>>>>>> ebd46bdc835ac17077bb70c3b6f6db3a4ee81ecd
  Link_05752                  17.862
  Link_05753                   2.877
  Link_05754                  21.270
  Link_05791                   4.640
<<<<<<< HEAD
  Link_05812                 203.213
  Link_05813                 122.870
  Link_05814                 112.350
  Link_05815                 112.675
=======
<<<<<<< HEAD
  Link_05812                 203.544
  Link_05813                 122.851
  Link_05814                 112.656
  Link_05815                 112.912
=======
  Link_05812                 203.801
  Link_05813                 122.975
  Link_05814                 112.434
  Link_05815                 112.727
>>>>>>> b040755ab93617f94f1ab7a7036927f36e763e5a
>>>>>>> ebd46bdc835ac17077bb70c3b6f6db3a4ee81ecd
  Link_05816                  12.717
  Link_05817                  18.603
  Link_05818                   9.990
  Link_05983                  19.769
  Link_05984                  16.113
  Link_06039                   1.095
<<<<<<< HEAD
=======
<<<<<<< HEAD
>>>>>>> ebd46bdc835ac17077bb70c3b6f6db3a4ee81ecd
  Link_07220                  60.025
  Link_07221                  63.735
  Link_07222                  81.958
  Link_07230                  85.856
  Link_07231                  89.752
<<<<<<< HEAD
  Link_07233                 173.902
  Link_07234                 177.772
  Link_07235                  80.435
  Link_07270                  21.506
  Link_07271                  25.213
=======
  Link_07233                 173.903
  Link_07234                 177.774
  Link_07235                  80.435
  Link_07270                  21.506
  Link_07271                  25.212
>>>>>>> ebd46bdc835ac17077bb70c3b6f6db3a4ee81ecd
  Link_07274                  12.520
  Link_07277                  28.870
  Link_07278                  32.529
  Link_07295                  36.224
<<<<<<< HEAD
  Link_07296                  39.985
  Link_07297                  56.289
  Link_07303                   7.196
  Link_07306                   7.191
  Link_07321                   9.976
  Link_07464                  18.040
  Link_07578                  21.599
  Link_07579                 280.514
  Link_07580                 254.990
  Link_07687                  16.304
  Link_07865                   9.964
  Link_08891                   8.962
  Link_08912                  30.355
  Link1_to_ChengXi          1399.939
  Link2_to_ChengXi           383.141
  Link3_to_ChengXi           182.333
  Link_to_LaoDongLu          190.581
  Pump_ChengXi1             1091.042
  Pump_ChengXi2              427.712
  Pump_ChengXi3              240.232
  Pump_ChengXi4              240.232
  Pump_LaoDongLu1            147.894
  Pump_LaoDongLu2             46.840
  Pump_LaoDongLu3             24.180
  outfallpump               1338.734
  

  Analysis begun on:  Mon Aug 16 03:44:52 2021
  Analysis ended on:  Mon Aug 16 03:44:55 2021
  Total elapsed time: 00:00:03
=======
=======
  Link_07220                  60.024
  Link_07221                  63.735
  Link_07222                  81.958
  Link_07230                  85.855
  Link_07231                  89.752
  Link_07233                 173.902
  Link_07234                 177.777
  Link_07235                  80.435
  Link_07270                  21.507
  Link_07271                  25.212
  Link_07274                  12.520
  Link_07277                  28.870
  Link_07278                  32.528
  Link_07295                  36.223
>>>>>>> b040755ab93617f94f1ab7a7036927f36e763e5a
  Link_07296                  39.985
  Link_07297                  56.288
  Link_07303                   7.196
  Link_07306                   7.191
  Link_07321                   9.976
<<<<<<< HEAD
  Link_07464                  18.040
  Link_07578                  21.599
  Link_07579                 285.926
  Link_07580                 260.378
  Link_07687                  16.295
  Link_07865                   9.964
  Link_08891                   8.962
  Link_08912                  30.356
  Link1_to_ChengXi          1409.835
  Link2_to_ChengXi           383.279
  Link3_to_ChengXi           182.335
  Link_to_LaoDongLu          190.585
  Pump_ChengXi1              950.162
  Pump_ChengXi2              551.149
  Pump_ChengXi3              304.654
  Pump_ChengXi4              211.083
  Pump_LaoDongLu1            139.071
  Pump_LaoDongLu2             42.700
  Pump_LaoDongLu3             42.700
  outfallpump               1502.600
  

  Analysis begun on:  Mon Aug 16 03:27:04 2021
  Analysis ended on:  Mon Aug 16 03:27:07 2021
  Total elapsed time: 00:00:03
=======
  Link_07464                  18.082
  Link_07578                  21.599
  Link_07579                 279.289
  Link_07580                 253.398
  Link_07687                  16.307
  Link_07865                   9.964
  Link_08891                   8.962
  Link_08912                  30.356
  Link1_to_ChengXi          1394.838
  Link2_to_ChengXi           383.983
  Link3_to_ChengXi           182.338
  Link_to_LaoDongLu          190.585
  Pump_ChengXi1             1035.046
  Pump_ChengXi2              422.650
  Pump_ChengXi3              291.224
  Pump_ChengXi4              248.161
  Pump_LaoDongLu1            129.056
  Pump_LaoDongLu2             62.190
  Pump_LaoDongLu3             23.866
  outfallpump               1409.488
  

  Analysis begun on:  Tue Aug 17 21:44:52 2021
  Analysis ended on:  Tue Aug 17 21:44:54 2021
  Total elapsed time: 00:00:02
>>>>>>> b040755ab93617f94f1ab7a7036927f36e763e5a
>>>>>>> ebd46bdc835ac17077bb70c3b6f6db3a4ee81ecd
