
  EPA STORM WATER MANAGEMENT MODEL - VERSION 5.1 (Build 5.3.0.dev0)
  --------------------------------------------------------------

  WARNING 04: minimum elevation drop used for Conduit Link_01776
  WARNING 04: minimum elevation drop used for Conduit Link_01779
  WARNING 04: minimum elevation drop used for Conduit Link_07234
  WARNING 02: maximum depth increased for Node Node_06087
  
  *********************************************************
  NOTE: The summary statistics displayed in this report are
  based on results found at every computational time step,  
  not just on results from each reporting time step.
  *********************************************************
  
  ****************
  Analysis Options
  ****************
  Flow Units ............... CMS
  Process Models:
    Rainfall/Runoff ........ YES
    RDII ................... NO
    Snowmelt ............... NO
    Groundwater ............ NO
    Flow Routing ........... YES
    Ponding Allowed ........ YES
    Water Quality .......... YES
  Infiltration Method ...... HORTON
  Flow Routing Method ...... DYNWAVE
  Surcharge Method ......... EXTRAN
  Starting Date ............ 01/02/2011 00:00:00
  Ending Date .............. 01/02/2011 06:00:00
  Antecedent Dry Days ...... 0.0
  Report Time Step ......... 00:15:00
  Wet Time Step ............ 00:05:00
  Dry Time Step ............ 01:00:00
  Routing Time Step ........ 60.00 sec
  Variable Time Step ....... YES
  Maximum Trials ........... 8
  Number of Threads ........ 1
  Head Tolerance ........... 0.001500 m
  
  
  **************************        Volume         Depth
  Runoff Quantity Continuity     hectare-m            mm
  **************************     ---------       -------
  Total Precipitation ......         0.572        20.000
  Evaporation Loss .........         0.000         0.000
  Infiltration Loss ........         0.034         1.188
  Surface Runoff ...........         0.545        19.041
  Final Storage ............         0.000         0.009
  Continuity Error (%) .....        -1.190
  
  
  **************************           COD
  Runoff Quality Continuity             kg
  **************************    ----------
  Initial Buildup ..........         0.000
  Surface Buildup ..........         0.000
  Wet Deposition ...........      1504.369
  Sweeping Removal .........         0.000
  Infiltration Loss ........        89.342
  BMP Removal ..............         0.000
  Surface Runoff ...........      1432.221
  Remaining Buildup ........         0.706
  Continuity Error (%) .....        -1.190
  
  
  **************************        Volume        Volume
  Flow Routing Continuity        hectare-m      10^6 ltr
  **************************     ---------     ---------
  Dry Weather Inflow .......         0.153         1.529
  Wet Weather Inflow .......         0.545         5.446
  Groundwater Inflow .......         0.000         0.000
  RDII Inflow ..............         0.000         0.000
  External Inflow ..........         0.000         0.000
<<<<<<< HEAD
  External Outflow .........         0.566         5.658
  Flooding Loss ............         0.200         2.003
  Evaporation Loss .........         0.000         0.000
  Exfiltration Loss ........         0.000         0.000
  Initial Stored Volume ....         0.077         0.773
  Final Stored Volume ......         0.051         0.511
  Continuity Error (%) .....        -5.475
=======
<<<<<<< HEAD
  External Outflow .........         0.557         5.570
  Flooding Loss ............         0.199         1.992
  Evaporation Loss .........         0.000         0.000
  Exfiltration Loss ........         0.000         0.000
  Initial Stored Volume ....         0.077         0.773
  Final Stored Volume ......         0.048         0.485
  Continuity Error (%) .....        -3.859
=======
  External Outflow .........         0.566         5.656
  Flooding Loss ............         0.190         1.899
  Evaporation Loss .........         0.000         0.000
  Exfiltration Loss ........         0.000         0.000
  Initial Stored Volume ....         0.077         0.773
  Final Stored Volume ......         0.054         0.542
  Continuity Error (%) .....        -4.504
>>>>>>> b040755ab93617f94f1ab7a7036927f36e763e5a
>>>>>>> ebd46bdc835ac17077bb70c3b6f6db3a4ee81ecd
  
  
  **************************           COD
  Quality Routing Continuity            kg
  **************************    ----------
  Dry Weather Inflow .......       845.606
  Wet Weather Inflow .......      1432.205
  Groundwater Inflow .......         0.000
  RDII Inflow ..............         0.000
  External Inflow ..........         0.000
<<<<<<< HEAD
  External Outflow .........      1494.248
  Flooding Loss ............       584.723
  Exfiltration Loss ........         0.000
  Mass Reacted .............         0.000
  Initial Stored Mass ......       427.257
  Final Stored Mass ........       243.407
  Continuity Error (%) .....        14.147
=======
<<<<<<< HEAD
  External Outflow .........      1798.610
  Flooding Loss ............       577.343
  Exfiltration Loss ........         0.000
  Mass Reacted .............         0.000
  Initial Stored Mass ......       427.257
  Final Stored Mass ........       232.750
  Continuity Error (%) .....         3.562
=======
  External Outflow .........      1615.129
  Flooding Loss ............       552.624
  Exfiltration Loss ........         0.000
  Mass Reacted .............         0.000
  Initial Stored Mass ......       427.257
  Final Stored Mass ........       259.644
  Continuity Error (%) .....        10.265
>>>>>>> b040755ab93617f94f1ab7a7036927f36e763e5a
>>>>>>> ebd46bdc835ac17077bb70c3b6f6db3a4ee81ecd
  
  
  *************************
  Highest Continuity Errors
  *************************
<<<<<<< HEAD
  Node Node_07272 (-120.00%)
  Node Node_07270 (-17.64%)
  Node Node_07271 (15.36%)
  Node Node_07267 (-6.31%)
  Node Node_07213 (3.98%)
=======
<<<<<<< HEAD
  Node Node_07272 (-98.81%)
  Node Node_07271 (18.22%)
  Node Node_07270 (-16.66%)
  Node Node_07267 (-6.36%)
  Node Node_07213 (3.00%)
=======
  Node Node_07272 (-108.39%)
  Node Node_07270 (-16.00%)
  Node Node_07271 (14.69%)
  Node Node_07267 (-6.28%)
  Node Node_04574 (-5.41%)
>>>>>>> b040755ab93617f94f1ab7a7036927f36e763e5a
>>>>>>> ebd46bdc835ac17077bb70c3b6f6db3a4ee81ecd
  
  
  ***************************
  Time-Step Critical Elements
  ***************************
<<<<<<< HEAD
  Link Link_01778 (90.76%)
  Link Link_01558 (4.10%)
  Link Link_01769 (1.37%)
=======
<<<<<<< HEAD
  Link Link_01778 (92.36%)
  Link Link_01558 (3.96%)
  Link Link_01769 (1.27%)
=======
  Link Link_01778 (90.25%)
  Link Link_01558 (4.47%)
  Link Link_02129 (1.11%)
>>>>>>> b040755ab93617f94f1ab7a7036927f36e763e5a
>>>>>>> ebd46bdc835ac17077bb70c3b6f6db3a4ee81ecd
  
  
  ********************************
  Highest Flow Instability Indexes
  ********************************
<<<<<<< HEAD
  Link Link_01323 (36)
  Link Link_01336 (36)
  Link Link_01558 (36)
  Link Link_01325 (34)
  Link Link_01335 (33)
=======
<<<<<<< HEAD
  Link Link_01336 (36)
  Link Link_01323 (35)
  Link Link_01324 (35)
  Link Link_01325 (35)
  Link Link_01335 (34)
=======
  Link Link_01336 (38)
  Link Link_01335 (36)
  Link Link_01324 (36)
  Link Link_01323 (35)
  Link Link_01558 (34)
>>>>>>> b040755ab93617f94f1ab7a7036927f36e763e5a
>>>>>>> ebd46bdc835ac17077bb70c3b6f6db3a4ee81ecd
  
  
  *************************
  Routing Time Step Summary
  *************************
  Minimum Time Step           :     5.00 sec
  Average Time Step           :     5.00 sec
  Maximum Time Step           :     5.00 sec
  Percent in Steady State     :     0.00
<<<<<<< HEAD
  Average Iterations per Step :     4.19
  Percent Not Converging      :    28.50
=======
<<<<<<< HEAD
  Average Iterations per Step :     4.09
  Percent Not Converging      :    25.60
=======
  Average Iterations per Step :     4.11
  Percent Not Converging      :    26.62
>>>>>>> b040755ab93617f94f1ab7a7036927f36e763e5a
>>>>>>> ebd46bdc835ac17077bb70c3b6f6db3a4ee81ecd
  
  
  ***************************
  Subcatchment Runoff Summary
  ***************************
  
  ------------------------------------------------------------------------------------------------------------------------------
                            Total      Total      Total      Total     Imperv       Perv      Total       Total     Peak  Runoff
                           Precip      Runon       Evap      Infil     Runoff     Runoff     Runoff      Runoff   Runoff   Coeff
  Subcatchment                 mm         mm         mm         mm         mm         mm         mm    10^6 ltr      CMS
  ------------------------------------------------------------------------------------------------------------------------------
  2707                      20.00       0.00       0.00       1.19       5.00      14.04      19.04        0.02     0.01   0.952
  2708                      20.00       0.00       0.00       1.19       5.00      14.04      19.04        0.02     0.01   0.952
  2709                      20.00       0.00       0.00       1.19       5.00      14.04      19.04        0.02     0.01   0.952
  2710                      20.00       0.00       0.00       1.19       5.00      14.04      19.04        0.02     0.01   0.952
  2712                      20.00       0.00       0.00       1.19       5.00      14.04      19.04        0.02     0.01   0.952
  2713                      20.00       0.00       0.00       1.19       5.00      14.04      19.04        0.02     0.01   0.952
  2714                      20.00       0.00       0.00       1.19       5.00      14.04      19.04        0.02     0.01   0.952
  2715                      20.00       0.00       0.00       1.19       5.00      14.04      19.04        0.02     0.01   0.952
  2716                      20.00       0.00       0.00       1.19       5.00      14.04      19.04        0.02     0.01   0.952
  2717                      20.00       0.00       0.00       1.19       5.00      14.04      19.04        0.02     0.01   0.952
  2718                      20.00       0.00       0.00       1.19       5.00      14.04      19.04        0.02     0.01   0.952
  2719                      20.00       0.00       0.00       1.19       5.00      14.04      19.04        0.02     0.01   0.952
  2721                      20.00       0.00       0.00       1.19       5.00      14.04      19.04        0.02     0.01   0.952
  2722                      20.00       0.00       0.00       1.19       5.00      14.04      19.04        0.02     0.01   0.952
  2723                      20.00       0.00       0.00       1.19       5.00      14.04      19.04        0.02     0.01   0.952
  2724                      20.00       0.00       0.00       1.19       5.00      14.04      19.04        0.02     0.01   0.952
  2725                      20.00       0.00       0.00       1.19       5.00      14.04      19.04        0.02     0.01   0.952
  2726                      20.00       0.00       0.00       1.19       5.00      14.04      19.04        0.02     0.01   0.952
  2727                      20.00       0.00       0.00       1.19       5.00      14.04      19.04        0.02     0.01   0.952
  2728                      20.00       0.00       0.00       1.19       5.00      14.04      19.04        0.02     0.01   0.952
  2729                      20.00       0.00       0.00       1.19       5.00      14.04      19.04        0.02     0.01   0.952
  2730                      20.00       0.00       0.00       1.19       5.00      14.04      19.04        0.02     0.01   0.952
  2731                      20.00       0.00       0.00       1.19       5.00      14.04      19.04        0.02     0.01   0.952
  2732                      20.00       0.00       0.00       1.19       5.00      14.04      19.04        0.02     0.01   0.952
  2733                      20.00       0.00       0.00       1.19       5.00      14.04      19.04        0.02     0.01   0.952
  2734                      20.00       0.00       0.00       1.19       5.00      14.04      19.04        0.02     0.01   0.952
  2735                      20.00       0.00       0.00       1.19       5.00      14.04      19.04        0.02     0.01   0.952
  2736                      20.00       0.00       0.00       1.19       5.00      14.04      19.04        0.02     0.01   0.952
  2737                      20.00       0.00       0.00       1.19       5.00      14.04      19.04        0.02     0.01   0.952
  2738                      20.00       0.00       0.00       1.19       5.00      14.04      19.04        0.02     0.01   0.952
  2739                      20.00       0.00       0.00       1.19       5.00      14.04      19.04        0.02     0.01   0.952
  2740                      20.00       0.00       0.00       1.19       5.00      14.04      19.04        0.02     0.01   0.952
  2741                      20.00       0.00       0.00       1.19       5.00      14.04      19.04        0.02     0.01   0.952
  2742                      20.00       0.00       0.00       1.19       5.00      14.04      19.04        0.02     0.01   0.952
  2743                      20.00       0.00       0.00       1.19       5.00      14.04      19.04        0.02     0.01   0.952
  2744                      20.00       0.00       0.00       1.19       5.00      14.04      19.04        0.02     0.01   0.952
  2745                      20.00       0.00       0.00       1.19       5.00      14.04      19.04        0.02     0.01   0.952
  2746                      20.00       0.00       0.00       1.19       5.00      14.04      19.04        0.02     0.01   0.952
  2747                      20.00       0.00       0.00       1.19       5.00      14.04      19.04        0.02     0.01   0.952
  2748                      20.00       0.00       0.00       1.19       5.00      14.04      19.04        0.02     0.01   0.952
  2749                      20.00       0.00       0.00       1.19       5.00      14.04      19.04        0.02     0.01   0.952
  2750                      20.00       0.00       0.00       1.19       5.00      14.04      19.04        0.02     0.01   0.952
  2751                      20.00       0.00       0.00       1.19       5.00      14.04      19.04        0.02     0.01   0.952
  2752                      20.00       0.00       0.00       1.19       5.00      14.04      19.04        0.02     0.01   0.952
  2753                      20.00       0.00       0.00       1.19       5.00      14.04      19.04        0.02     0.01   0.952
  2754                      20.00       0.00       0.00       1.19       5.00      14.04      19.04        0.02     0.01   0.952
  2755                      20.00       0.00       0.00       1.19       5.00      14.04      19.04        0.02     0.01   0.952
  2756                      20.00       0.00       0.00       1.19       5.00      14.04      19.04        0.02     0.01   0.952
  2964                      20.00       0.00       0.00       1.19       5.00      14.04      19.04        0.02     0.01   0.952
  2969                      20.00       0.00       0.00       1.19       5.00      14.04      19.04        0.02     0.01   0.952
  2970                      20.00       0.00       0.00       1.19       5.00      14.04      19.04        0.02     0.01   0.952
  2974                      20.00       0.00       0.00       1.19       5.00      14.04      19.04        0.02     0.01   0.952
  2975                      20.00       0.00       0.00       1.19       5.00      14.04      19.04        0.02     0.01   0.952
  2976                      20.00       0.00       0.00       1.19       5.00      14.04      19.04        0.02     0.01   0.952
  2977                      20.00       0.00       0.00       1.19       5.00      14.04      19.04        0.02     0.01   0.952
  2978                      20.00       0.00       0.00       1.19       5.00      14.04      19.04        0.02     0.01   0.952
  2979                      20.00       0.00       0.00       1.19       5.00      14.04      19.04        0.02     0.01   0.952
  2980                      20.00       0.00       0.00       1.19       5.00      14.04      19.04        0.02     0.01   0.952
  2981                      20.00       0.00       0.00       1.19       5.00      14.04      19.04        0.02     0.01   0.952
  2982                      20.00       0.00       0.00       1.19       5.00      14.04      19.04        0.02     0.01   0.952
  2984                      20.00       0.00       0.00       1.19       5.00      14.04      19.04        0.02     0.01   0.952
  2985                      20.00       0.00       0.00       1.19       5.00      14.04      19.04        0.02     0.01   0.952
  3925                      20.00       0.00       0.00       1.19       5.00      14.04      19.04        0.02     0.01   0.952
  3926                      20.00       0.00       0.00       1.19       5.00      14.04      19.04        0.02     0.01   0.952
  3927                      20.00       0.00       0.00       1.19       5.00      14.04      19.04        0.02     0.01   0.952
  3928                      20.00       0.00       0.00       1.19       5.00      14.04      19.04        0.02     0.01   0.952
  3929                      20.00       0.00       0.00       1.19       5.00      14.04      19.04        0.02     0.01   0.952
  3930                      20.00       0.00       0.00       1.19       5.00      14.04      19.04        0.02     0.01   0.952
  3931                      20.00       0.00       0.00       1.19       5.00      14.04      19.04        0.02     0.01   0.952
  3932                      20.00       0.00       0.00       1.19       5.00      14.04      19.04        0.02     0.01   0.952
  3933                      20.00       0.00       0.00       1.19       5.00      14.04      19.04        0.02     0.01   0.952
  3934                      20.00       0.00       0.00       1.19       5.00      14.04      19.04        0.02     0.01   0.952
  3935                      20.00       0.00       0.00       1.19       5.00      14.04      19.04        0.02     0.01   0.952
  3936                      20.00       0.00       0.00       1.19       5.00      14.04      19.04        0.02     0.01   0.952
  3937                      20.00       0.00       0.00       1.19       5.00      14.04      19.04        0.02     0.01   0.952
  3938                      20.00       0.00       0.00       1.19       5.00      14.04      19.04        0.02     0.01   0.952
  3939                      20.00       0.00       0.00       1.19       5.00      14.04      19.04        0.02     0.01   0.952
  3940                      20.00       0.00       0.00       1.19       5.00      14.04      19.04        0.02     0.01   0.952
  3941                      20.00       0.00       0.00       1.19       5.00      14.04      19.04        0.02     0.01   0.952
  3942                      20.00       0.00       0.00       1.19       5.00      14.04      19.04        0.02     0.01   0.952
  3943                      20.00       0.00       0.00       1.19       5.00      14.04      19.04        0.02     0.01   0.952
  3944                      20.00       0.00       0.00       1.19       5.00      14.04      19.04        0.02     0.01   0.952
  3945                      20.00       0.00       0.00       1.19       5.00      14.04      19.04        0.02     0.01   0.952
  3946                      20.00       0.00       0.00       1.19       5.00      14.04      19.04        0.02     0.01   0.952
  3947                      20.00       0.00       0.00       1.19       5.00      14.04      19.04        0.02     0.01   0.952
  3948                      20.00       0.00       0.00       1.19       5.00      14.04      19.04        0.02     0.01   0.952
  3949                      20.00       0.00       0.00       1.19       5.00      14.04      19.04        0.02     0.01   0.952
  3950                      20.00       0.00       0.00       1.19       5.00      14.04      19.04        0.02     0.01   0.952
  3951                      20.00       0.00       0.00       1.19       5.00      14.04      19.04        0.02     0.01   0.952
  3952                      20.00       0.00       0.00       1.19       5.00      14.04      19.04        0.02     0.01   0.952
  3953                      20.00       0.00       0.00       1.19       5.00      14.04      19.04        0.02     0.01   0.952
  3954                      20.00       0.00       0.00       1.19       5.00      14.04      19.04        0.02     0.01   0.952
  3955                      20.00       0.00       0.00       1.19       5.00      14.04      19.04        0.02     0.01   0.952
  3956                      20.00       0.00       0.00       1.19       5.00      14.04      19.04        0.02     0.01   0.952
  4032                      20.00       0.00       0.00       1.19       5.00      14.04      19.04        0.02     0.01   0.952
  4033                      20.00       0.00       0.00       1.19       5.00      14.04      19.04        0.02     0.01   0.952
  4041                      20.00       0.00       0.00       1.19       5.00      14.04      19.04        0.02     0.01   0.952
  4051                      20.00       0.00       0.00       1.19       5.00      14.04      19.04        0.02     0.01   0.952
  4055                      20.00       0.00       0.00       1.19       5.00      14.04      19.04        0.02     0.01   0.952
  4056                      20.00       0.00       0.00       1.19       5.00      14.04      19.04        0.02     0.01   0.952
  4058                      20.00       0.00       0.00       1.19       5.00      14.04      19.04        0.02     0.01   0.952
  4385                      20.00       0.00       0.00       1.19       5.00      14.04      19.04        0.02     0.01   0.952
  4386                      20.00       0.00       0.00       1.19       5.00      14.04      19.04        0.02     0.01   0.952
  4387                      20.00       0.00       0.00       1.19       5.00      14.04      19.04        0.02     0.01   0.952
  4388                      20.00       0.00       0.00       1.19       5.00      14.04      19.04        0.02     0.01   0.952
  4389                      20.00       0.00       0.00       1.19       5.00      14.04      19.04        0.02     0.01   0.952
  4390                      20.00       0.00       0.00       1.19       5.00      14.04      19.04        0.02     0.01   0.952
  4391                      20.00       0.00       0.00       1.19       5.00      14.04      19.04        0.02     0.01   0.952
  4392                      20.00       0.00       0.00       1.19       5.00      14.04      19.04        0.02     0.01   0.952
  4393                      20.00       0.00       0.00       1.19       5.00      14.04      19.04        0.02     0.01   0.952
  4394                      20.00       0.00       0.00       1.19       5.00      14.04      19.04        0.02     0.01   0.952
  4395                      20.00       0.00       0.00       1.19       5.00      14.04      19.04        0.02     0.01   0.952
  4396                      20.00       0.00       0.00       1.19       5.00      14.04      19.04        0.02     0.01   0.952
  4397                      20.00       0.00       0.00       1.19       5.00      14.04      19.04        0.02     0.01   0.952
  4398                      20.00       0.00       0.00       1.19       5.00      14.04      19.04        0.02     0.01   0.952
  4429                      20.00       0.00       0.00       1.19       5.00      14.04      19.04        0.02     0.01   0.952
  4430                      20.00       0.00       0.00       1.19       5.00      14.04      19.04        0.02     0.01   0.952
  4431                      20.00       0.00       0.00       1.19       5.00      14.04      19.04        0.02     0.01   0.952
  4432                      20.00       0.00       0.00       1.19       5.00      14.04      19.04        0.02     0.01   0.952
  4433                      20.00       0.00       0.00       1.19       5.00      14.04      19.04        0.02     0.01   0.952
  4434                      20.00       0.00       0.00       1.19       5.00      14.04      19.04        0.02     0.01   0.952
  4435                      20.00       0.00       0.00       1.19       5.00      14.04      19.04        0.02     0.01   0.952
  4436                      20.00       0.00       0.00       1.19       5.00      14.04      19.04        0.02     0.01   0.952
  4437                      20.00       0.00       0.00       1.19       5.00      14.04      19.04        0.02     0.01   0.952
  4438                      20.00       0.00       0.00       1.19       5.00      14.04      19.04        0.02     0.01   0.952
  4439                      20.00       0.00       0.00       1.19       5.00      14.04      19.04        0.02     0.01   0.952
  4440                      20.00       0.00       0.00       1.19       5.00      14.04      19.04        0.02     0.01   0.952
  4441                      20.00       0.00       0.00       1.19       5.00      14.04      19.04        0.02     0.01   0.952
  4442                      20.00       0.00       0.00       1.19       5.00      14.04      19.04        0.02     0.01   0.952
  4443                      20.00       0.00       0.00       1.19       5.00      14.04      19.04        0.02     0.01   0.952
  4444                      20.00       0.00       0.00       1.19       5.00      14.04      19.04        0.02     0.01   0.952
  4445                      20.00       0.00       0.00       1.19       5.00      14.04      19.04        0.02     0.01   0.952
  4446                      20.00       0.00       0.00       1.19       5.00      14.04      19.04        0.02     0.01   0.952
  4447                      20.00       0.00       0.00       1.19       5.00      14.04      19.04        0.02     0.01   0.952
  4448                      20.00       0.00       0.00       1.19       5.00      14.04      19.04        0.02     0.01   0.952
  4449                      20.00       0.00       0.00       1.19       5.00      14.04      19.04        0.02     0.01   0.952
  4450                      20.00       0.00       0.00       1.19       5.00      14.04      19.04        0.02     0.01   0.952
  4451                      20.00       0.00       0.00       1.19       5.00      14.04      19.04        0.02     0.01   0.952
  4452                      20.00       0.00       0.00       1.19       5.00      14.04      19.04        0.02     0.01   0.952
  4453                      20.00       0.00       0.00       1.19       5.00      14.04      19.04        0.02     0.01   0.952
  4454                      20.00       0.00       0.00       1.19       5.00      14.04      19.04        0.02     0.01   0.952
  4462                      20.00       0.00       0.00       1.19       5.00      14.04      19.04        0.02     0.01   0.952
  4463                      20.00       0.00       0.00       1.19       5.00      14.04      19.04        0.02     0.01   0.952
  4563                      20.00       0.00       0.00       1.19       5.00      14.04      19.04        0.02     0.01   0.952
  4564                      20.00       0.00       0.00       1.19       5.00      14.04      19.04        0.02     0.01   0.952
  4565                      20.00       0.00       0.00       1.19       5.00      14.04      19.04        0.02     0.01   0.952
  4566                      20.00       0.00       0.00       1.19       5.00      14.04      19.04        0.02     0.01   0.952
  4567                      20.00       0.00       0.00       1.19       5.00      14.04      19.04        0.02     0.01   0.952
  4568                      20.00       0.00       0.00       1.19       5.00      14.04      19.04        0.02     0.01   0.952
  4569                      20.00       0.00       0.00       1.19       5.00      14.04      19.04        0.02     0.01   0.952
  4570                      20.00       0.00       0.00       1.19       5.00      14.04      19.04        0.02     0.01   0.952
  4571                      20.00       0.00       0.00       1.19       5.00      14.04      19.04        0.02     0.01   0.952
  4572                      20.00       0.00       0.00       1.19       5.00      14.04      19.04        0.02     0.01   0.952
  4573                      20.00       0.00       0.00       1.19       5.00      14.04      19.04        0.02     0.01   0.952
  4574                      20.00       0.00       0.00       1.19       5.00      14.04      19.04        0.02     0.01   0.952
  4575                      20.00       0.00       0.00       1.19       5.00      14.04      19.04        0.02     0.01   0.952
  4576                      20.00       0.00       0.00       1.19       5.00      14.04      19.04        0.02     0.01   0.952
  4577                      20.00       0.00       0.00       1.19       5.00      14.04      19.04        0.02     0.01   0.952
  4578                      20.00       0.00       0.00       1.19       5.00      14.04      19.04        0.02     0.01   0.952
  4579                      20.00       0.00       0.00       1.19       5.00      14.04      19.04        0.02     0.01   0.952
  4580                      20.00       0.00       0.00       1.19       5.00      14.04      19.04        0.02     0.01   0.952
  4581                      20.00       0.00       0.00       1.19       5.00      14.04      19.04        0.02     0.01   0.952
  4624                      20.00       0.00       0.00       1.19       5.00      14.04      19.04        0.02     0.01   0.952
  4625                      20.00       0.00       0.00       1.19       5.00      14.04      19.04        0.02     0.01   0.952
  4644                      20.00       0.00       0.00       1.19       5.00      14.04      19.04        0.02     0.01   0.952
  4645                      20.00       0.00       0.00       1.19       5.00      14.04      19.04        0.02     0.01   0.952
  4646                      20.00       0.00       0.00       1.19       5.00      14.04      19.04        0.02     0.01   0.952
  4679                      20.00       0.00       0.00       1.19       5.00      14.04      19.04        0.02     0.01   0.952
  4680                      20.00       0.00       0.00       1.19       5.00      14.04      19.04        0.02     0.01   0.952
  4681                      20.00       0.00       0.00       1.19       5.00      14.04      19.04        0.02     0.01   0.952
  4682                      20.00       0.00       0.00       1.19       5.00      14.04      19.04        0.02     0.01   0.952
  4683                      20.00       0.00       0.00       1.19       5.00      14.04      19.04        0.02     0.01   0.952
  4711                      20.00       0.00       0.00       1.19       5.00      14.04      19.04        0.02     0.01   0.952
  4712                      20.00       0.00       0.00       1.19       5.00      14.04      19.04        0.02     0.01   0.952
  4713                      20.00       0.00       0.00       1.19       5.00      14.04      19.04        0.02     0.01   0.952
  4714                      20.00       0.00       0.00       1.19       5.00      14.04      19.04        0.02     0.01   0.952
  4715                      20.00       0.00       0.00       1.19       5.00      14.04      19.04        0.02     0.01   0.952
  4716                      20.00       0.00       0.00       1.19       5.00      14.04      19.04        0.02     0.01   0.952
  4717                      20.00       0.00       0.00       1.19       5.00      14.04      19.04        0.02     0.01   0.952
  4718                      20.00       0.00       0.00       1.19       5.00      14.04      19.04        0.02     0.01   0.952
  4722                      20.00       0.00       0.00       1.19       5.00      14.04      19.04        0.02     0.01   0.952
  4760                      20.00       0.00       0.00       1.19       5.00      14.04      19.04        0.02     0.01   0.952
  4761                      20.00       0.00       0.00       1.19       5.00      14.04      19.04        0.02     0.01   0.952
  4765                      20.00       0.00       0.00       1.19       5.00      14.04      19.04        0.02     0.01   0.952
  4766                      20.00       0.00       0.00       1.19       5.00      14.04      19.04        0.02     0.01   0.952
  4767                      20.00       0.00       0.00       1.19       5.00      14.04      19.04        0.02     0.01   0.952
  4768                      20.00       0.00       0.00       1.19       5.00      14.04      19.04        0.02     0.01   0.952
  4769                      20.00       0.00       0.00       1.19       5.00      14.04      19.04        0.02     0.01   0.952
  4855                      20.00       0.00       0.00       1.19       5.00      14.04      19.04        0.02     0.01   0.952
  4856                      20.00       0.00       0.00       1.19       5.00      14.04      19.04        0.02     0.01   0.952
  5284                      20.00       0.00       0.00       1.19       5.00      14.04      19.04        0.02     0.01   0.952
  5285                      20.00       0.00       0.00       1.19       5.00      14.04      19.04        0.02     0.01   0.952
  5286                      20.00       0.00       0.00       1.19       5.00      14.04      19.04        0.02     0.01   0.952
  5287                      20.00       0.00       0.00       1.19       5.00      14.04      19.04        0.02     0.01   0.952
  5288                      20.00       0.00       0.00       1.19       5.00      14.04      19.04        0.02     0.01   0.952
  5289                      20.00       0.00       0.00       1.19       5.00      14.04      19.04        0.02     0.01   0.952
  5290                      20.00       0.00       0.00       1.19       5.00      14.04      19.04        0.02     0.01   0.952
  5291                      20.00       0.00       0.00       1.19       5.00      14.04      19.04        0.02     0.01   0.952
  5292                      20.00       0.00       0.00       1.19       5.00      14.04      19.04        0.02     0.01   0.952
  5293                      20.00       0.00       0.00       1.19       5.00      14.04      19.04        0.02     0.01   0.952
  5294                      20.00       0.00       0.00       1.19       5.00      14.04      19.04        0.02     0.01   0.952
  5295                      20.00       0.00       0.00       1.19       5.00      14.04      19.04        0.02     0.01   0.952
  5296                      20.00       0.00       0.00       1.19       5.00      14.04      19.04        0.02     0.01   0.952
  5297                      20.00       0.00       0.00       1.19       5.00      14.04      19.04        0.02     0.01   0.952
  5298                      20.00       0.00       0.00       1.19       5.00      14.04      19.04        0.02     0.01   0.952
  5299                      20.00       0.00       0.00       1.19       5.00      14.04      19.04        0.02     0.01   0.952
  5300                      20.00       0.00       0.00       1.19       5.00      14.04      19.04        0.02     0.01   0.952
  5301                      20.00       0.00       0.00       1.19       5.00      14.04      19.04        0.02     0.01   0.952
  5302                      20.00       0.00       0.00       1.19       5.00      14.04      19.04        0.02     0.01   0.952
  5303                      20.00       0.00       0.00       1.19       5.00      14.04      19.04        0.02     0.01   0.952
  5304                      20.00       0.00       0.00       1.19       5.00      14.04      19.04        0.02     0.01   0.952
  5305                      20.00       0.00       0.00       1.19       5.00      14.04      19.04        0.02     0.01   0.952
  5306                      20.00       0.00       0.00       1.19       5.00      14.04      19.04        0.02     0.01   0.952
  5307                      20.00       0.00       0.00       1.19       5.00      14.04      19.04        0.02     0.01   0.952
  5308                      20.00       0.00       0.00       1.19       5.00      14.04      19.04        0.02     0.01   0.952
  5309                      20.00       0.00       0.00       1.19       5.00      14.04      19.04        0.02     0.01   0.952
  5310                      20.00       0.00       0.00       1.19       5.00      14.04      19.04        0.02     0.01   0.952
  5311                      20.00       0.00       0.00       1.19       5.00      14.04      19.04        0.02     0.01   0.952
  5312                      20.00       0.00       0.00       1.19       5.00      14.04      19.04        0.02     0.01   0.952
  5313                      20.00       0.00       0.00       1.19       5.00      14.04      19.04        0.02     0.01   0.952
  5314                      20.00       0.00       0.00       1.19       5.00      14.04      19.04        0.02     0.01   0.952
  5315                      20.00       0.00       0.00       1.19       5.00      14.04      19.04        0.02     0.01   0.952
  5316                      20.00       0.00       0.00       1.19       5.00      14.04      19.04        0.02     0.01   0.952
  5317                      20.00       0.00       0.00       1.19       5.00      14.04      19.04        0.02     0.01   0.952
  5318                      20.00       0.00       0.00       1.19       5.00      14.04      19.04        0.02     0.01   0.952
  5319                      20.00       0.00       0.00       1.19       5.00      14.04      19.04        0.02     0.01   0.952
  5320                      20.00       0.00       0.00       1.19       5.00      14.04      19.04        0.02     0.01   0.952
  5321                      20.00       0.00       0.00       1.19       5.00      14.04      19.04        0.02     0.01   0.952
  5322                      20.00       0.00       0.00       1.19       5.00      14.04      19.04        0.02     0.01   0.952
  5323                      20.00       0.00       0.00       1.19       5.00      14.04      19.04        0.02     0.01   0.952
  5324                      20.00       0.00       0.00       1.19       5.00      14.04      19.04        0.02     0.01   0.952
  5325                      20.00       0.00       0.00       1.19       5.00      14.04      19.04        0.02     0.01   0.952
  5326                      20.00       0.00       0.00       1.19       5.00      14.04      19.04        0.02     0.01   0.952
  5327                      20.00       0.00       0.00       1.19       5.00      14.04      19.04        0.02     0.01   0.952
  5328                      20.00       0.00       0.00       1.19       5.00      14.04      19.04        0.02     0.01   0.952
  5329                      20.00       0.00       0.00       1.19       5.00      14.04      19.04        0.02     0.01   0.952
  5330                      20.00       0.00       0.00       1.19       5.00      14.04      19.04        0.02     0.01   0.952
  5333                      20.00       0.00       0.00       1.19       5.00      14.04      19.04        0.02     0.01   0.952
  5334                      20.00       0.00       0.00       1.19       5.00      14.04      19.04        0.02     0.01   0.952
  6040                      20.00       0.00       0.00       1.19       5.00      14.04      19.04        0.02     0.01   0.952
  6041                      20.00       0.00       0.00       1.19       5.00      14.04      19.04        0.02     0.01   0.952
  6162                      20.00       0.00       0.00       1.19       5.00      14.04      19.04        0.02     0.01   0.952
  7207                      20.00       0.00       0.00       1.19       5.00      14.04      19.04        0.02     0.01   0.952
  7208                      20.00       0.00       0.00       1.19       5.00      14.04      19.04        0.02     0.01   0.952
  7213                      20.00       0.00       0.00       1.19       5.00      14.04      19.04        0.02     0.01   0.952
  7214                      20.00       0.00       0.00       1.19       5.00      14.04      19.04        0.02     0.01   0.952
  7219                      20.00       0.00       0.00       1.19       5.00      14.04      19.04        0.02     0.01   0.952
  7220                      20.00       0.00       0.00       1.19       5.00      14.04      19.04        0.02     0.01   0.952
  7221                      20.00       0.00       0.00       1.19       5.00      14.04      19.04        0.02     0.01   0.952
  7225                      20.00       0.00       0.00       1.19       5.00      14.04      19.04        0.02     0.01   0.952
  7229                      20.00       0.00       0.00       1.19       5.00      14.04      19.04        0.02     0.01   0.952
  7231                      20.00       0.00       0.00       1.19       5.00      14.04      19.04        0.02     0.01   0.952
  7268                      20.00       0.00       0.00       1.19       5.00      14.04      19.04        0.02     0.01   0.952
  7269                      20.00       0.00       0.00       1.19       5.00      14.04      19.04        0.02     0.01   0.952
  7271                      20.00       0.00       0.00       1.19       5.00      14.04      19.04        0.02     0.01   0.952
  7272                      20.00       0.00       0.00       1.19       5.00      14.04      19.04        0.02     0.01   0.952
  7273                      20.00       0.00       0.00       1.19       5.00      14.04      19.04        0.02     0.01   0.952
  7433                      20.00       0.00       0.00       1.19       5.00      14.04      19.04        0.02     0.01   0.952
  7434                      20.00       0.00       0.00       1.19       5.00      14.04      19.04        0.02     0.01   0.952
  7544                      20.00       0.00       0.00       1.19       5.00      14.04      19.04        0.02     0.01   0.952
  7545                      20.00       0.00       0.00       1.19       5.00      14.04      19.04        0.02     0.01   0.952
  8737                      20.00       0.00       0.00       1.19       5.00      14.04      19.04        0.02     0.01   0.952
  8818                      20.00       0.00       0.00       1.19       5.00      14.04      19.04        0.02     0.01   0.952
  9942                      20.00       0.00       0.00       1.19       5.00      14.04      19.04        0.02     0.01   0.952
  9957                      20.00       0.00       0.00       1.19       5.00      14.04      19.04        0.02     0.01   0.952
  4399                      20.00       0.00       0.00       1.13       5.00      14.01      19.01        0.01     0.00   0.951
  4400                      20.00       0.00       0.00       1.13       5.00      14.01      19.01        0.01     0.00   0.951
  4401                      20.00       0.00       0.00       1.13       5.00      14.01      19.01        0.01     0.00   0.951
  4402                      20.00       0.00       0.00       1.13       5.00      14.01      19.01        0.01     0.00   0.951
  4403                      20.00       0.00       0.00       1.13       5.00      14.01      19.01        0.01     0.00   0.951
  4404                      20.00       0.00       0.00       1.13       5.00      14.01      19.01        0.01     0.00   0.951
  4405                      20.00       0.00       0.00       1.13       5.00      14.01      19.01        0.01     0.00   0.951
  4406                      20.00       0.00       0.00       1.13       5.00      14.01      19.01        0.01     0.00   0.951
  4407                      20.00       0.00       0.00       1.13       5.00      14.01      19.01        0.01     0.00   0.951
  4408                      20.00       0.00       0.00       1.13       5.00      14.01      19.01        0.01     0.00   0.951
  4409                      20.00       0.00       0.00       1.13       5.00      14.01      19.01        0.01     0.00   0.951
  4410                      20.00       0.00       0.00       1.13       5.00      14.01      19.01        0.01     0.00   0.951
  4411                      20.00       0.00       0.00       1.13       5.00      14.01      19.01        0.01     0.00   0.951
  4412                      20.00       0.00       0.00       1.13       5.00      14.01      19.01        0.01     0.00   0.951
  4423                      20.00       0.00       0.00       1.13       5.00      14.01      19.01        0.01     0.00   0.951
  4424                      20.00       0.00       0.00       1.13       5.00      14.01      19.01        0.01     0.00   0.951
  4425                      20.00       0.00       0.00       1.13       5.00      14.01      19.01        0.01     0.00   0.951
  4426                      20.00       0.00       0.00       1.13       5.00      14.01      19.01        0.01     0.00   0.951
  4427                      20.00       0.00       0.00       1.13       5.00      14.01      19.01        0.01     0.00   0.951
  4428                      20.00       0.00       0.00       1.13       5.00      14.01      19.01        0.01     0.00   0.951
  4455                      20.00       0.00       0.00       1.13       5.00      14.01      19.01        0.01     0.00   0.951
  4456                      20.00       0.00       0.00       1.13       5.00      14.01      19.01        0.01     0.00   0.951
  4457                      20.00       0.00       0.00       1.13       5.00      14.01      19.01        0.01     0.00   0.951
  4458                      20.00       0.00       0.00       1.13       5.00      14.01      19.01        0.01     0.00   0.951
  4459                      20.00       0.00       0.00       1.13       5.00      14.01      19.01        0.01     0.00   0.951
  4460                      20.00       0.00       0.00       1.13       5.00      14.01      19.01        0.01     0.00   0.951
  4461                      20.00       0.00       0.00       1.13       5.00      14.01      19.01        0.01     0.00   0.951
  4464                      20.00       0.00       0.00       1.13       5.00      14.01      19.01        0.01     0.00   0.951
  4465                      20.00       0.00       0.00       1.13       5.00      14.01      19.01        0.01     0.00   0.951
  4466                      20.00       0.00       0.00       1.13       5.00      14.01      19.01        0.01     0.00   0.951
  4467                      20.00       0.00       0.00       1.13       5.00      14.01      19.01        0.01     0.00   0.951
  4468                      20.00       0.00       0.00       1.13       5.00      14.01      19.01        0.01     0.00   0.951
  4469                      20.00       0.00       0.00       1.13       5.00      14.01      19.01        0.01     0.00   0.951
  4470                      20.00       0.00       0.00       1.13       5.00      14.01      19.01        0.01     0.00   0.951
  4471                      20.00       0.00       0.00       1.13       5.00      14.01      19.01        0.01     0.00   0.951
  4472                      20.00       0.00       0.00       1.13       5.00      14.01      19.01        0.01     0.00   0.951
  4473                      20.00       0.00       0.00       1.13       5.00      14.01      19.01        0.01     0.00   0.951
  4474                      20.00       0.00       0.00       1.13       5.00      14.01      19.01        0.01     0.00   0.951
  4628                      20.00       0.00       0.00       1.13       5.00      14.01      19.01        0.01     0.00   0.951
  4631                      20.00       0.00       0.00       1.13       5.00      14.01      19.01        0.01     0.00   0.951
  4632                      20.00       0.00       0.00       1.13       5.00      14.01      19.01        0.01     0.00   0.951
  4633                      20.00       0.00       0.00       1.13       5.00      14.01      19.01        0.01     0.00   0.951
  4634                      20.00       0.00       0.00       1.13       5.00      14.01      19.01        0.01     0.00   0.951
  4637                      20.00       0.00       0.00       1.13       5.00      14.01      19.01        0.01     0.00   0.951
  4686                      20.00       0.00       0.00       1.13       5.00      14.01      19.01        0.01     0.00   0.951
  4687                      20.00       0.00       0.00       1.13       5.00      14.01      19.01        0.01     0.00   0.951
  4688                      20.00       0.00       0.00       1.13       5.00      14.01      19.01        0.01     0.00   0.951
  5032                      20.00       0.00       0.00       1.13       5.00      14.01      19.01        0.01     0.00   0.951
  5331                      20.00       0.00       0.00       1.13       5.00      14.01      19.01        0.01     0.00   0.951
  5332                      20.00       0.00       0.00       1.13       5.00      14.01      19.01        0.01     0.00   0.951
  5335                      20.00       0.00       0.00       1.13       5.00      14.01      19.01        0.01     0.00   0.951
  5336                      20.00       0.00       0.00       1.13       5.00      14.01      19.01        0.01     0.00   0.951
  5337                      20.00       0.00       0.00       1.13       5.00      14.01      19.01        0.01     0.00   0.951
  5338                      20.00       0.00       0.00       1.13       5.00      14.01      19.01        0.01     0.00   0.951
  5339                      20.00       0.00       0.00       1.13       5.00      14.01      19.01        0.01     0.00   0.951
  5340                      20.00       0.00       0.00       1.13       5.00      14.01      19.01        0.01     0.00   0.951
  5341                      20.00       0.00       0.00       1.13       5.00      14.01      19.01        0.01     0.00   0.951
  5342                      20.00       0.00       0.00       1.13       5.00      14.01      19.01        0.01     0.00   0.951
  5343                      20.00       0.00       0.00       1.13       5.00      14.01      19.01        0.01     0.00   0.951
  5344                      20.00       0.00       0.00       1.13       5.00      14.01      19.01        0.01     0.00   0.951
  5345                      20.00       0.00       0.00       1.13       5.00      14.01      19.01        0.01     0.00   0.951
  5346                      20.00       0.00       0.00       1.13       5.00      14.01      19.01        0.01     0.00   0.951
  5347                      20.00       0.00       0.00       1.13       5.00      14.01      19.01        0.01     0.00   0.951
  5348                      20.00       0.00       0.00       1.13       5.00      14.01      19.01        0.01     0.00   0.951
  5349                      20.00       0.00       0.00       1.13       5.00      14.01      19.01        0.01     0.00   0.951
  5350                      20.00       0.00       0.00       1.13       5.00      14.01      19.01        0.01     0.00   0.951
  6088                      20.00       0.00       0.00       1.13       5.00      14.01      19.01        0.01     0.00   0.951
  7275                      20.00       0.00       0.00       1.13       5.00      14.01      19.01        0.01     0.00   0.951
  9955                      20.00       0.00       0.00       1.13       5.00      14.01      19.01        0.01     0.00   0.951
  9956                      20.00       0.00       0.00       1.13       5.00      14.01      19.01        0.01     0.00   0.951
  
  
  ****************************
  Subcatchment Washoff Summary
  ****************************
  
  ----------------------------------
                                 COD
  Subcatchment                    kg
  ----------------------------------
  2707                         5.008
  2708                         5.008
  2709                         5.008
  2710                         5.008
  2712                         5.008
  2713                         5.008
  2714                         5.008
  2715                         5.008
  2716                         5.008
  2717                         5.008
  2718                         5.008
  2719                         5.008
  2721                         5.008
  2722                         5.008
  2723                         5.008
  2724                         5.008
  2725                         5.008
  2726                         5.008
  2727                         5.008
  2728                         5.008
  2729                         5.008
  2730                         5.008
  2731                         5.008
  2732                         5.008
  2733                         5.008
  2734                         5.008
  2735                         5.008
  2736                         5.008
  2737                         5.008
  2738                         5.008
  2739                         5.008
  2740                         5.008
  2741                         5.008
  2742                         5.008
  2743                         5.008
  2744                         5.008
  2745                         5.008
  2746                         5.008
  2747                         5.008
  2748                         5.008
  2749                         5.008
  2750                         5.008
  2751                         5.008
  2752                         5.008
  2753                         5.008
  2754                         5.008
  2755                         5.008
  2756                         5.008
  2964                         5.008
  2969                         5.008
  2970                         5.008
  2974                         5.008
  2975                         5.008
  2976                         5.008
  2977                         5.008
  2978                         5.008
  2979                         5.008
  2980                         5.008
  2981                         5.008
  2982                         5.008
  2984                         5.008
  2985                         5.008
  3925                         5.008
  3926                         5.008
  3927                         5.008
  3928                         5.008
  3929                         5.008
  3930                         5.008
  3931                         5.008
  3932                         5.008
  3933                         5.008
  3934                         5.008
  3935                         5.008
  3936                         5.008
  3937                         5.008
  3938                         5.008
  3939                         5.008
  3940                         5.008
  3941                         5.008
  3942                         5.008
  3943                         5.008
  3944                         5.008
  3945                         5.008
  3946                         5.008
  3947                         5.008
  3948                         5.008
  3949                         5.008
  3950                         5.008
  3951                         5.008
  3952                         5.008
  3953                         5.008
  3954                         5.008
  3955                         5.008
  3956                         5.008
  4032                         5.008
  4033                         5.008
  4041                         5.008
  4051                         5.008
  4055                         5.008
  4056                         5.008
  4058                         5.008
  4385                         5.008
  4386                         5.008
  4387                         5.008
  4388                         5.008
  4389                         5.008
  4390                         5.008
  4391                         5.008
  4392                         5.008
  4393                         5.008
  4394                         5.008
  4395                         5.008
  4396                         5.008
  4397                         5.008
  4398                         5.008
  4429                         5.008
  4430                         5.008
  4431                         5.008
  4432                         5.008
  4433                         5.008
  4434                         5.008
  4435                         5.008
  4436                         5.008
  4437                         5.008
  4438                         5.008
  4439                         5.008
  4440                         5.008
  4441                         5.008
  4442                         5.008
  4443                         5.008
  4444                         5.008
  4445                         5.008
  4446                         5.008
  4447                         5.008
  4448                         5.008
  4449                         5.008
  4450                         5.008
  4451                         5.008
  4452                         5.008
  4453                         5.008
  4454                         5.008
  4462                         5.008
  4463                         5.008
  4563                         5.008
  4564                         5.008
  4565                         5.008
  4566                         5.008
  4567                         5.008
  4568                         5.008
  4569                         5.008
  4570                         5.008
  4571                         5.008
  4572                         5.008
  4573                         5.008
  4574                         5.008
  4575                         5.008
  4576                         5.008
  4577                         5.008
  4578                         5.008
  4579                         5.008
  4580                         5.008
  4581                         5.008
  4624                         5.008
  4625                         5.008
  4644                         5.008
  4645                         5.008
  4646                         5.008
  4679                         5.008
  4680                         5.008
  4681                         5.008
  4682                         5.008
  4683                         5.008
  4711                         5.008
  4712                         5.008
  4713                         5.008
  4714                         5.008
  4715                         5.008
  4716                         5.008
  4717                         5.008
  4718                         5.008
  4722                         5.008
  4760                         5.008
  4761                         5.008
  4765                         5.008
  4766                         5.008
  4767                         5.008
  4768                         5.008
  4769                         5.008
  4855                         5.008
  4856                         5.008
  5284                         5.008
  5285                         5.008
  5286                         5.008
  5287                         5.008
  5288                         5.008
  5289                         5.008
  5290                         5.008
  5291                         5.008
  5292                         5.008
  5293                         5.008
  5294                         5.008
  5295                         5.008
  5296                         5.008
  5297                         5.008
  5298                         5.008
  5299                         5.008
  5300                         5.008
  5301                         5.008
  5302                         5.008
  5303                         5.008
  5304                         5.008
  5305                         5.008
  5306                         5.008
  5307                         5.008
  5308                         5.008
  5309                         5.008
  5310                         5.008
  5311                         5.008
  5312                         5.008
  5313                         5.008
  5314                         5.008
  5315                         5.008
  5316                         5.008
  5317                         5.008
  5318                         5.008
  5319                         5.008
  5320                         5.008
  5321                         5.008
  5322                         5.008
  5323                         5.008
  5324                         5.008
  5325                         5.008
  5326                         5.008
  5327                         5.008
  5328                         5.008
  5329                         5.008
  5330                         5.008
  5333                         5.008
  5334                         5.008
  6040                         5.008
  6041                         5.008
  6162                         5.008
  7207                         5.008
  7208                         5.008
  7213                         5.008
  7214                         5.008
  7219                         5.008
  7220                         5.008
  7221                         5.008
  7225                         5.008
  7229                         5.008
  7231                         5.008
  7268                         5.008
  7269                         5.008
  7271                         5.008
  7272                         5.008
  7273                         5.008
  7433                         5.008
  7434                         5.008
  7544                         5.008
  7545                         5.008
  8737                         5.008
  8818                         5.008
  9942                         5.008
  9957                         5.008
  4399                         1.500
  4400                         1.500
  4401                         1.500
  4402                         1.500
  4403                         1.500
  4404                         1.500
  4405                         1.500
  4406                         1.500
  4407                         1.500
  4408                         1.500
  4409                         1.500
  4410                         1.500
  4411                         1.500
  4412                         1.500
  4423                         1.500
  4424                         1.500
  4425                         1.500
  4426                         1.500
  4427                         1.500
  4428                         1.500
  4455                         1.500
  4456                         1.500
  4457                         1.500
  4458                         1.500
  4459                         1.500
  4460                         1.500
  4461                         1.500
  4464                         1.500
  4465                         1.500
  4466                         1.500
  4467                         1.500
  4468                         1.500
  4469                         1.500
  4470                         1.500
  4471                         1.500
  4472                         1.500
  4473                         1.500
  4474                         1.500
  4628                         1.500
  4631                         1.500
  4632                         1.500
  4633                         1.500
  4634                         1.500
  4637                         1.500
  4686                         1.500
  4687                         1.500
  4688                         1.500
  5032                         1.500
  5331                         1.500
  5332                         1.500
  5335                         1.500
  5336                         1.500
  5337                         1.500
  5338                         1.500
  5339                         1.500
  5340                         1.500
  5341                         1.500
  5342                         1.500
  5343                         1.500
  5344                         1.500
  5345                         1.500
  5346                         1.500
  5347                         1.500
  5348                         1.500
  5349                         1.500
  5350                         1.500
  6088                         1.500
  7275                         1.500
  9955                         1.500
  9956                         1.500
  ----------------------------------
  System                    1432.221
  
  
  ******************
  Node Depth Summary
  ******************
  
  ---------------------------------------------------------------------------------
                                 Average  Maximum  Maximum  Time of Max    Reported
                                   Depth    Depth      HGL   Occurrence   Max Depth
  Node                 Type       Meters   Meters   Meters  days hr:min      Meters
  ---------------------------------------------------------------------------------
<<<<<<< HEAD
  Node_02706           JUNCTION     1.86     3.08    99.92     0  02:16        0.00
  Node_02707           JUNCTION     0.29     0.72   100.15     0  01:46        0.00
  Node_02708           JUNCTION     0.35     0.43   100.18     0  01:30        0.00
  Node_02709           JUNCTION     0.42     0.53   100.16     0  01:48        0.00
  Node_02711           JUNCTION     0.06     0.25   100.16     0  01:49        0.00
  Node_02712           JUNCTION     0.06     0.26   100.16     0  01:48        0.00
  Node_02713           JUNCTION     0.10     0.31   100.16     0  01:48        0.00
  Node_02714           JUNCTION     0.01     0.05   100.45     0  01:30        0.00
  Node_02715           JUNCTION     0.08     0.34   100.15     0  01:47        0.00
  Node_02716           JUNCTION     0.10     0.43   100.15     0  01:47        0.00
  Node_02717           JUNCTION     0.13     0.51   100.15     0  01:46        0.00
  Node_02718           JUNCTION     0.13     0.55   100.15     0  01:46        0.00
  Node_02720           JUNCTION     0.13     0.58   100.14     0  01:46        0.00
  Node_02721           JUNCTION     0.41     0.90   100.15     0  01:46        0.00
  Node_02722           JUNCTION     0.13     0.19   101.99     0  01:30        0.00
  Node_02723           JUNCTION     0.34     0.85   100.15     0  01:46        0.00
  Node_02724           JUNCTION     0.18     0.73   100.14     0  01:47        0.00
  Node_02725           JUNCTION     0.19     0.78   100.15     0  01:46        0.00
  Node_02726           JUNCTION     0.24     0.88   100.14     0  01:46        0.00
  Node_02727           JUNCTION     0.31     1.00   100.12     0  01:46        0.00
  Node_02728           JUNCTION     0.05     0.09   100.17     0  01:30        0.00
  Node_02729           JUNCTION     0.34     1.06   100.12     0  01:45        0.00
  Node_02730           JUNCTION     0.34     1.09   100.12     0  01:45        0.00
  Node_02731           JUNCTION     0.74     1.52   100.11     0  01:45        0.00
  Node_02732           JUNCTION     0.31     1.08   100.10     0  01:45        0.00
  Node_02733           JUNCTION     0.30     1.09   100.10     0  02:16        0.00
  Node_02734           JUNCTION     0.58     1.39   100.10     0  02:16        0.00
  Node_02735           JUNCTION     0.48     1.29   100.10     0  02:15        0.00
  Node_02736           JUNCTION     0.66     1.48   100.09     0  02:16        0.00
  Node_02737           JUNCTION     0.64     1.47   100.09     0  02:15        0.00
  Node_02738           JUNCTION     0.47     1.31   100.08     0  02:16        0.00
  Node_02739           JUNCTION     0.34     1.20   100.07     0  02:16        0.00
  Node_02740           JUNCTION     0.34     1.23   100.07     0  02:17        0.00
  Node_02741           JUNCTION     0.17     0.78   100.07     0  02:16        0.00
  Node_02742           JUNCTION     0.35     1.26   100.06     0  02:16        0.00
  Node_02743           JUNCTION     0.77     1.67   100.04     0  02:16        0.00
  Node_02744           JUNCTION     0.16     0.71   100.05     0  02:16        0.00
  Node_02745           JUNCTION     0.49     1.42   100.04     0  02:16        0.00
  Node_02746           JUNCTION     0.38     1.33   100.02     0  02:16        0.00
  Node_02747           JUNCTION     0.04     0.11   100.46     0  01:30        0.00
  Node_02748           JUNCTION     0.03     0.07   100.52     0  01:30        0.00
  Node_02749           JUNCTION     0.39     1.36   100.00     0  02:16        0.00
  Node_02750           JUNCTION     0.40     1.38    99.98     0  02:17        0.00
  Node_02751           JUNCTION     0.37     1.37    99.96     0  02:16        0.00
  Node_02752           JUNCTION     0.37     1.41    99.95     0  02:16        0.00
  Node_02753           JUNCTION     0.39     1.45    99.93     0  02:16        0.00
  Node_02754           JUNCTION     0.38     1.59    99.91     0  02:16        0.00
  Node_02755           JUNCTION     1.30     2.52    99.91     0  02:16        0.00
  Node_02963           JUNCTION     0.06     0.24   100.15     0  01:46        0.00
  Node_02968           JUNCTION     0.06     0.12   100.24     0  01:30        0.00
  Node_02969           JUNCTION     0.07     0.16   100.05     0  02:16        0.00
  Node_02973           JUNCTION     0.86     2.02    99.91     0  02:16        0.00
  Node_02974           JUNCTION     0.71     2.26    99.39     0  02:16        0.00
  Node_02975           JUNCTION     0.71     2.28    99.42     0  02:17        0.00
  Node_02976           JUNCTION     0.76     2.43    99.62     0  02:16        0.00
  Node_02977           JUNCTION     0.79     2.63    99.96     0  02:16        0.00
  Node_02978           JUNCTION     0.76     2.61   100.14     0  02:15        0.00
  Node_02979           JUNCTION     0.64     2.14    99.26     0  02:18        0.00
  Node_02980           JUNCTION     0.55     2.01    99.09     0  02:19        0.00
  Node_02981           JUNCTION     0.52     1.98    98.93     0  02:21        0.00
  Node_02983           JUNCTION     0.04     0.06   100.18     0  01:30        0.00
  Node_02984           JUNCTION     1.12     2.92    99.90     0  02:16        0.00
  Node_03924           JUNCTION     0.09     1.00   101.82     0  01:26        0.00
  Node_03925           JUNCTION     0.33     2.04   102.41     0  01:30        0.00
  Node_03926           JUNCTION     0.03     0.94   102.41     0  01:29        0.00
  Node_03927           JUNCTION     0.30     2.03   102.41     0  01:29        0.00
  Node_03928           JUNCTION     0.32     2.06   102.40     0  01:29        0.00
  Node_03929           JUNCTION     0.33     2.08   102.38     0  01:29        0.00
  Node_03930           JUNCTION     0.35     2.11   102.36     0  01:29        0.00
  Node_03931           JUNCTION     0.34     2.10   102.35     0  01:29        0.00
  Node_03932           JUNCTION     0.37     2.14   102.30     0  01:29        0.00
  Node_03933           JUNCTION     0.38     2.11   102.24     0  01:29        0.00
  Node_03934           JUNCTION     0.09     1.38   102.24     0  01:29        0.00
  Node_03935           JUNCTION     0.43     2.16   102.14     0  01:29        0.00
  Node_03936           JUNCTION     0.44     2.11   102.04     0  01:28        0.00
  Node_03937           JUNCTION     1.22     1.77   101.93     0  01:27        0.00
  Node_03938           JUNCTION     0.85     3.27   102.46     0  01:24        0.00
  Node_03939           JUNCTION     0.91     3.41   102.44     0  01:24        0.00
  Node_03940           JUNCTION     0.96     3.48   102.41     0  01:24        0.00
  Node_03941           JUNCTION     1.02     3.53   102.34     0  01:24        0.00
  Node_03942           JUNCTION     1.04     3.53   102.28     0  01:26        0.00
=======
<<<<<<< HEAD
  Node_02706           JUNCTION     1.85     3.12    99.96     0  02:16        0.00
  Node_02707           JUNCTION     0.29     0.75   100.18     0  01:44        0.00
  Node_02708           JUNCTION     0.35     0.44   100.20     0  01:47        0.00
  Node_02709           JUNCTION     0.43     0.57   100.20     0  01:47        0.00
  Node_02711           JUNCTION     0.07     0.29   100.20     0  01:47        0.00
  Node_02712           JUNCTION     0.07     0.29   100.20     0  01:48        0.00
  Node_02713           JUNCTION     0.11     0.35   100.20     0  01:48        0.00
  Node_02714           JUNCTION     0.01     0.05   100.45     0  01:30        0.00
  Node_02715           JUNCTION     0.09     0.38   100.19     0  01:47        0.00
  Node_02716           JUNCTION     0.10     0.47   100.19     0  01:48        0.00
  Node_02717           JUNCTION     0.13     0.55   100.18     0  01:44        0.00
  Node_02718           JUNCTION     0.13     0.58   100.18     0  01:44        0.00
  Node_02720           JUNCTION     0.14     0.62   100.19     0  01:46        0.00
  Node_02721           JUNCTION     0.42     0.93   100.18     0  01:44        0.00
  Node_02722           JUNCTION     0.13     0.19   101.99     0  01:30        0.00
  Node_02723           JUNCTION     0.34     0.89   100.18     0  01:44        0.00
  Node_02724           JUNCTION     0.18     0.77   100.19     0  01:46        0.00
  Node_02725           JUNCTION     0.19     0.81   100.18     0  01:43        0.00
  Node_02726           JUNCTION     0.25     0.91   100.17     0  01:44        0.00
  Node_02727           JUNCTION     0.32     1.04   100.16     0  01:45        0.00
  Node_02728           JUNCTION     0.05     0.09   100.17     0  01:30        0.00
  Node_02729           JUNCTION     0.34     1.10   100.16     0  01:44        0.00
  Node_02730           JUNCTION     0.34     1.13   100.16     0  01:45        0.00
  Node_02731           JUNCTION     0.75     1.56   100.15     0  02:16        0.00
  Node_02732           JUNCTION     0.31     1.12   100.14     0  02:16        0.00
  Node_02733           JUNCTION     0.30     1.14   100.15     0  02:15        0.00
  Node_02734           JUNCTION     0.58     1.44   100.15     0  02:15        0.00
  Node_02735           JUNCTION     0.48     1.34   100.15     0  02:16        0.00
  Node_02736           JUNCTION     0.67     1.53   100.14     0  02:16        0.00
  Node_02737           JUNCTION     0.65     1.52   100.14     0  02:16        0.00
  Node_02738           JUNCTION     0.47     1.37   100.14     0  02:15        0.00
  Node_02739           JUNCTION     0.34     1.25   100.12     0  02:16        0.00
  Node_02740           JUNCTION     0.34     1.28   100.12     0  02:16        0.00
  Node_02741           JUNCTION     0.17     0.83   100.12     0  02:17        0.00
  Node_02742           JUNCTION     0.35     1.31   100.12     0  02:17        0.00
  Node_02743           JUNCTION     0.77     1.72   100.09     0  02:16        0.00
  Node_02744           JUNCTION     0.16     0.76   100.10     0  02:16        0.00
  Node_02745           JUNCTION     0.49     1.47   100.09     0  02:16        0.00
  Node_02746           JUNCTION     0.38     1.38   100.07     0  02:16        0.00
  Node_02747           JUNCTION     0.04     0.11   100.46     0  01:30        0.00
  Node_02748           JUNCTION     0.03     0.07   100.52     0  01:30        0.00
  Node_02749           JUNCTION     0.39     1.41   100.05     0  02:15        0.00
  Node_02750           JUNCTION     0.40     1.43   100.03     0  02:15        0.00
  Node_02751           JUNCTION     0.37     1.42   100.01     0  02:16        0.00
  Node_02752           JUNCTION     0.37     1.45   100.00     0  02:15        0.00
  Node_02753           JUNCTION     0.38     1.50    99.97     0  02:15        0.00
  Node_02754           JUNCTION     0.37     1.64    99.96     0  02:16        0.00
  Node_02755           JUNCTION     1.30     2.56    99.95     0  02:16        0.00
  Node_02963           JUNCTION     0.07     0.28   100.19     0  01:46        0.00
  Node_02968           JUNCTION     0.06     0.12   100.24     0  01:30        0.00
  Node_02969           JUNCTION     0.07     0.21   100.10     0  02:16        0.00
  Node_02973           JUNCTION     0.86     2.07    99.96     0  02:15        0.00
  Node_02974           JUNCTION     0.69     2.32    99.45     0  02:17        0.00
  Node_02975           JUNCTION     0.69     2.33    99.47     0  02:17        0.00
  Node_02976           JUNCTION     0.74     2.48    99.67     0  02:17        0.00
  Node_02977           JUNCTION     0.77     2.68   100.01     0  02:16        0.00
  Node_02978           JUNCTION     0.74     2.66   100.19     0  02:15        0.00
  Node_02979           JUNCTION     0.63     2.19    99.31     0  02:17        0.00
  Node_02980           JUNCTION     0.54     2.06    99.15     0  02:18        0.00
  Node_02981           JUNCTION     0.50     2.03    98.98     0  02:20        0.00
  Node_02983           JUNCTION     0.04     0.06   100.18     0  01:30        0.00
  Node_02984           JUNCTION     1.10     2.97    99.95     0  02:16        0.00
=======
  Node_02706           JUNCTION     1.86     3.06    99.90     0  02:17        0.00
  Node_02707           JUNCTION     0.29     0.71   100.14     0  01:46        0.00
  Node_02708           JUNCTION     0.35     0.43   100.18     0  01:30        0.00
  Node_02709           JUNCTION     0.42     0.52   100.15     0  01:47        0.00
  Node_02711           JUNCTION     0.06     0.24   100.15     0  01:48        0.00
  Node_02712           JUNCTION     0.06     0.25   100.15     0  01:48        0.00
  Node_02713           JUNCTION     0.10     0.30   100.15     0  01:48        0.00
  Node_02714           JUNCTION     0.01     0.05   100.45     0  01:30        0.00
  Node_02715           JUNCTION     0.08     0.34   100.15     0  01:48        0.00
  Node_02716           JUNCTION     0.10     0.43   100.14     0  01:47        0.00
  Node_02717           JUNCTION     0.13     0.51   100.14     0  01:46        0.00
  Node_02718           JUNCTION     0.12     0.54   100.14     0  01:47        0.00
  Node_02720           JUNCTION     0.13     0.57   100.14     0  01:46        0.00
  Node_02721           JUNCTION     0.41     0.89   100.14     0  01:46        0.00
  Node_02722           JUNCTION     0.13     0.19   101.99     0  01:30        0.00
  Node_02723           JUNCTION     0.34     0.84   100.14     0  01:47        0.00
  Node_02724           JUNCTION     0.17     0.72   100.14     0  01:47        0.00
  Node_02725           JUNCTION     0.18     0.77   100.13     0  01:46        0.00
  Node_02726           JUNCTION     0.24     0.87   100.13     0  01:45        0.00
  Node_02727           JUNCTION     0.31     0.99   100.11     0  01:45        0.00
  Node_02728           JUNCTION     0.05     0.09   100.17     0  01:30        0.00
  Node_02729           JUNCTION     0.34     1.06   100.12     0  01:46        0.00
  Node_02730           JUNCTION     0.34     1.09   100.12     0  01:46        0.00
  Node_02731           JUNCTION     0.74     1.51   100.10     0  01:44        0.00
  Node_02732           JUNCTION     0.31     1.07   100.09     0  01:45        0.00
  Node_02733           JUNCTION     0.30     1.08   100.09     0  01:45        0.00
  Node_02734           JUNCTION     0.58     1.37   100.08     0  02:16        0.00
  Node_02735           JUNCTION     0.48     1.28   100.09     0  02:16        0.00
  Node_02736           JUNCTION     0.66     1.47   100.08     0  02:17        0.00
  Node_02737           JUNCTION     0.64     1.46   100.08     0  02:16        0.00
  Node_02738           JUNCTION     0.47     1.30   100.07     0  02:17        0.00
  Node_02739           JUNCTION     0.34     1.19   100.06     0  02:16        0.00
[...]
  Link_01783                   8.516
  Link_01784                 325.164
  Link_01785                 331.234
  Link_01786                  58.743
  Link_01787                  29.943
  Link_01788                 426.128
  Link_01789                 433.108
  Link_01790                  13.871
  Link_01791                  12.187
  Link_01792                  10.358
  Link_01793                 472.361
  Link_01794                 478.613
  Link_01795                 484.711
  Link_01796                 490.970
  Link_01797                 496.597
  Link_01798                1003.535
  Link_01799                 995.300
  Link_01800                1011.514
  Link_01801                 521.667
  Link_01802                 959.261
  Link_01803                 987.988
  Link_01804                 855.224
  Link_01805                 848.193
  Link_01806                 840.856
  Link_01807                 833.223
  Link_01808                  12.103
  Link_01809                 814.480
  Link_01810                 802.027
  Link_01811                   5.036
  Link_01812                  50.455
  Link_01813                  40.613
  Link_01814                 772.827
  Link_01815                 765.128
  Link_01816                 750.783
  Link_01817                   6.819
  Link_01818                 720.956
  Link_01819                 703.640
  Link_01820                  10.300
  Link_01821                  23.313
  Link_01822                   5.032
  Link_01823                 149.632
  Link_01824                 147.731
  Link_01825                  43.813
>>>>>>> b040755ab93617f94f1ab7a7036927f36e763e5a
  Link_01826                  45.453
>>>>>>> ebd46bdc835ac17077bb70c3b6f6db3a4ee81ecd
  Link_01827                   1.498
  Link_01828                  48.627
  Link_01829                   5.013
  Link_01830                  55.398
  Link_01831                   1.498
<<<<<<< HEAD
  Link_01832                  58.602
  Link_01833                  60.251
=======
  Link_01832                  58.601
  Link_01833                  60.250
>>>>>>> ebd46bdc835ac17077bb70c3b6f6db3a4ee81ecd
  Link_01834                  63.589
  Link_01835                   1.498
  Link_01836                  33.667
  Link_01837                  19.367
  Link_01838                  23.055
  Link_01839                  31.942
  Link_01840                  30.404
  Link_01841                  28.867
  Link_01842                  24.071
  Link_01843                  20.901
  Link_01844                  19.358
<<<<<<< HEAD
  Link_02074                   8.546
  Link_02075                 141.824
  Link_02076                 158.059
  Link_02077                  13.031
  Link_02078                 176.790
  Link_02079                  10.408
  Link_02080                 192.732
  Link_02081                 198.142
  Link_02082                 203.534
  Link_02083                  10.466
  Link_02084                   8.911
  Link_02085                 487.802
  Link_02086                 475.490
  Link_02087                 469.188
  Link_02088                 462.265
  Link_02089                 455.381
  Link_02090                 458.499
  Link_02091                 452.727
  Link_02092                 446.900
  Link_02093                   8.554
  Link_02094                 426.157
  Link_02095                 420.241
  Link_02096                 390.050
  Link_02097                  15.608
  Link_02098                  21.905
  Link_02099                 384.387
  Link_02100                 378.703
  Link_02101                  14.350
  Link_02102                 355.515
  Link_02103                 336.105
  Link_02104                  19.238
  Link_02105                 271.284
  Link_02106                  12.682
  Link_02107                   5.226
  Link_02108                 257.090
  Link_02109                 251.609
  Link_02110                 217.011
  Link_02111                 144.290
  Link_02112                  13.890
=======
<<<<<<< HEAD
  Link_02074                   8.586
  Link_02075                 136.888
  Link_02076                 153.001
  Link_02077                  12.964
  Link_02078                 171.509
  Link_02079                  10.436
  Link_02080                 187.422
  Link_02081                 192.888
  Link_02082                 198.394
  Link_02083                  10.503
  Link_02084                   8.815
  Link_02085                 485.363
  Link_02086                 473.267
  Link_02087                 466.847
  Link_02088                 459.432
  Link_02089                 452.403
  Link_02090                 462.754
  Link_02091                 456.706
  Link_02092                 450.776
  Link_02093                   8.633
  Link_02094                 429.385
  Link_02095                 423.409
  Link_02096                 392.238
  Link_02097                  15.641
  Link_02098                  21.041
  Link_02099                 386.341
  Link_02100                 380.333
  Link_02101                  14.146
  Link_02102                 355.646
  Link_02103                 336.510
  Link_02104                  18.473
  Link_02105                 274.771
  Link_02106                  12.662
  Link_02107                   5.168
  Link_02108                 261.526
  Link_02109                 255.844
  Link_02110                 217.006
  Link_02111                 144.288
  Link_02112                  13.842
>>>>>>> ebd46bdc835ac17077bb70c3b6f6db3a4ee81ecd
  Link_02113                 107.179
  Link_02114                  27.410
  Link_02115                  25.776
  Link_02116                  24.220
  Link_02117                  22.698
<<<<<<< HEAD
=======
=======
  Link_02074                   8.582
  Link_02075                 142.375
  Link_02076                 158.588
  Link_02077                  13.421
  Link_02078                 177.420
  Link_02079                  10.373
  Link_02080                 193.376
  Link_02081                 198.756
  Link_02082                 204.147
  Link_02083                  10.460
  Link_02084                   8.983
  Link_02085                 480.662
  Link_02086                 468.267
  Link_02087                 462.374
  Link_02088                 455.993
  Link_02089                 449.598
  Link_02090                 450.538
  Link_02091                 444.780
  Link_02092                 438.999
  Link_02093                   8.609
  Link_02094                 418.479
  Link_02095                 412.605
  Link_02096                 381.675
  Link_02097                  15.587
  Link_02098                  21.535
  Link_02099                 375.843
  Link_02100                 370.273
  Link_02101                  14.205
  Link_02102                 346.929
  Link_02103                 328.062
  Link_02104                  18.833
  Link_02105                 266.710
  Link_02106                  12.759
  Link_02107                   5.242
  Link_02108                 252.851
  Link_02109                 247.747
  Link_02110                 217.012
  Link_02111                 144.294
  Link_02112                  13.969
  Link_02113                 107.180
  Link_02114                  27.410
  Link_02115                  25.777
  Link_02116                  24.221
  Link_02117                  22.699
>>>>>>> b040755ab93617f94f1ab7a7036927f36e763e5a
>>>>>>> ebd46bdc835ac17077bb70c3b6f6db3a4ee81ecd
  Link_02118                  21.155
  Link_02123                   5.043
  Link_02124                   6.571
  Link_02125                   8.105
  Link_02126                   9.592
<<<<<<< HEAD
  Link_02127                  19.610
  Link_02128                  18.068
  Link_02129                  16.558
=======
<<<<<<< HEAD
  Link_02127                  19.610
  Link_02128                  18.070
  Link_02129                  16.554
=======
  Link_02127                  19.611
  Link_02128                  18.069
  Link_02129                  16.559
>>>>>>> b040755ab93617f94f1ab7a7036927f36e763e5a
>>>>>>> ebd46bdc835ac17077bb70c3b6f6db3a4ee81ecd
  Link_02130                  15.035
  Link_02131                  13.485
  Link_02132                  11.926
  Link_02133                  10.371
  Link_02134                 108.856
<<<<<<< HEAD
  Link_02135                 110.425
  Link_02136                 117.138
  Link_02137                   5.041
  Link_02138                 132.150
  Link_02139                 130.478
  Link_02140                 128.745
  Link_02141                 127.205
  Link_02142                 125.398
  Link_02143                 118.771
  Link_02383                   5.407
  Link_02384                  10.876
  Link_02385                  16.386
  Link_02386                  22.893
  Link_02387                  44.399
  Link_02388                  49.031
  Link_02389                  22.800
  Link_02390                  53.976
  Link_02391                  81.744
  Link_02392                  29.445
  Link_02393                 115.436
  Link_05459                  39.134
  Link_05460                  99.146
  Link_05461                 132.863
  Link_05462                 294.709
  Link_05463                 465.771
  Link_05464                  27.412
  Link_05496                1543.996
  Link_05662                  33.735
  Link_05663                   6.936
  Link_05664                  41.005
  Link_05665                 375.877
  Link_05677                 278.026
  Link_05678                  15.685
  Link_05720                 956.968
  Link_05721                 799.763
  Link_05722                  13.938
  Link_05723                  78.081
  Link_05725                  11.147
  Link_05726                 493.397
  Link_05727                   6.744
  Link_05728                 432.914
  Link_05729                 360.870
  Link_05730                 215.231
  Link_05731                 145.853
  Link_05732                 142.694
  Link_05742                  23.267
  Link_05743                 117.063
  Link_05744                 209.419
  Link_05752                  39.274
  Link_05753                   3.276
  Link_05754                  22.464
  Link_05791                   5.034
  Link_05812                 209.260
  Link_05813                 124.770
  Link_05814                 101.418
  Link_05815                 105.011
  Link_05816                  14.702
  Link_05817                  21.379
  Link_05818                  10.374
  Link_05983                  22.486
  Link_05984                  17.476
  Link_06039                   1.494
  Link_07220                 165.261
  Link_07221                 170.357
  Link_07222                 184.791
  Link_07230                 190.076
  Link_07231                 195.645
  Link_07233                 302.617
  Link_07234                 307.995
  Link_07235                 102.583
  Link_07270                  45.163
  Link_07271                  78.555
  Link_07274                  20.340
  Link_07277                 117.137
  Link_07278                 147.336
  Link_07295                 128.158
  Link_07296                 141.222
  Link_07297                 160.208
  Link_07303                   9.173
  Link_07306                  17.404
  Link_07321                  10.375
  Link_07464                  19.616
  Link_07578                  22.993
  Link_07579                 328.958
  Link_07580                 298.317
  Link_07687                  17.440
  Link_07865                  10.356
  Link_08891                  10.384
  Link_08912                  31.845
  Link1_to_ChengXi          1612.684
  Link2_to_ChengXi           385.991
  Link3_to_ChengXi           314.044
  Link_to_LaoDongLu          218.681
  Pump_ChengXi1             1105.066
  Pump_ChengXi2              490.819
  Pump_ChengXi3              375.475
  Pump_ChengXi4              375.475
  Pump_LaoDongLu1            142.176
  Pump_LaoDongLu2             60.395
  Pump_LaoDongLu3             44.452
  outfallpump               1494.248
  

  Analysis begun on:  Mon Aug 16 03:44:41 2021
  Analysis ended on:  Mon Aug 16 03:44:43 2021
=======
<<<<<<< HEAD
  Link_02135                 110.424
  Link_02136                 117.136
  Link_02137                   5.041
  Link_02138                 132.148
  Link_02139                 130.475
  Link_02140                 128.742
  Link_02141                 127.203
  Link_02142                 125.396
  Link_02143                 118.770
  Link_02383                   5.584
  Link_02384                  10.622
  Link_02385                  16.250
  Link_02386                  23.029
  Link_02387                  44.578
  Link_02388                  49.127
  Link_02389                  22.516
  Link_02390                  54.050
  Link_02391                  81.281
  Link_02392                  29.476
  Link_02393                 114.396
  Link_05459                  40.167
  Link_05460                  99.069
  Link_05461                 132.757
  Link_05462                 294.003
  Link_05463                 465.041
  Link_05464                  28.534
  Link_05496                1531.896
  Link_05662                  33.888
  Link_05663                   6.678
  Link_05664                  40.788
  Link_05665                 377.187
  Link_05677                 279.213
  Link_05678                  15.671
  Link_05720                 945.593
  Link_05721                 789.844
  Link_05722                  13.952
  Link_05723                  78.081
  Link_05725                  11.147
  Link_05726                 490.632
  Link_05727                   6.755
  Link_05728                 436.326
  Link_05729                 361.449
  Link_05730                 215.226
  Link_05731                 145.849
  Link_05732                 142.691
  Link_05742                  23.397
  Link_05743                 112.316
  Link_05744                 204.392
  Link_05752                  45.068
  Link_05753                   3.276
  Link_05754                  22.464
  Link_05791                   5.034
  Link_05812                 210.669
  Link_05813                 125.303
  Link_05814                 101.685
  Link_05815                 105.276
  Link_05816                  14.702
  Link_05817                  21.379
  Link_05818                  10.374
  Link_05983                  22.481
  Link_05984                  17.476
  Link_06039                   1.494
  Link_07220                 127.256
  Link_07221                 132.304
  Link_07222                 146.684
  Link_07230                 151.957
  Link_07231                 157.608
  Link_07233                 264.342
  Link_07234                 269.718
  Link_07235                 102.329
  Link_07270                  36.309
  Link_07271                  56.588
  Link_07274                  18.636
  Link_07277                  86.662
  Link_07278                 102.905
  Link_07295                  92.702
  Link_07296                 103.452
  Link_07297                 122.087
  Link_07303                   8.717
  Link_07306                  16.616
  Link_07321                  10.375
  Link_07464                  19.658
  Link_07578                  22.960
  Link_07579                 329.226
  Link_07580                 299.704
  Link_07687                  17.497
  Link_07865                  10.356
  Link_08891                  10.453
  Link_08912                  31.855
  Link1_to_ChengXi          1601.055
  Link2_to_ChengXi           387.325
  Link3_to_ChengXi           275.702
  Link_to_LaoDongLu          218.676
  Pump_ChengXi1              870.782
  Pump_ChengXi2              656.992
  Pump_ChengXi3              408.964
  Pump_ChengXi4              365.756
  Pump_LaoDongLu1            137.006
  Pump_LaoDongLu2             56.948
  Pump_LaoDongLu3             56.948
  outfallpump               1798.610
  

  Analysis begun on:  Mon Aug 16 03:26:53 2021
  Analysis ended on:  Mon Aug 16 03:26:55 2021
=======
  Link_02135                 110.430
  Link_02136                 117.143
  Link_02137                   5.041
  Link_02138                 132.154
  Link_02139                 130.481
  Link_02140                 128.748
  Link_02141                 127.211
  Link_02142                 125.403
  Link_02143                 118.776
  Link_02383                   5.414
  Link_02384                  10.897
  Link_02385                  16.398
  Link_02386                  22.830
  Link_02387                  44.346
  Link_02388                  48.943
  Link_02389                  22.821
  Link_02390                  53.926
  Link_02391                  81.798
  Link_02392                  29.366
  Link_02393                 115.436
  Link_05459                  39.138
  Link_05460                  99.182
  Link_05461                 132.803
  Link_05462                 294.748
  Link_05463                 465.841
  Link_05464                  27.141
  Link_05496                1540.533
  Link_05662                  33.783
  Link_05663                   6.682
  Link_05664                  41.153
  Link_05665                 377.652
  Link_05677                 279.661
  Link_05678                  15.681
  Link_05720                 952.541
  Link_05721                 794.362
  Link_05722                  13.940
  Link_05723                  78.080
  Link_05725                  11.147
  Link_05726                 486.464
  Link_05727                   6.749
  Link_05728                 424.893
  Link_05729                 352.171
  Link_05730                 215.232
  Link_05731                 145.854
  Link_05732                 142.697
  Link_05742                  23.209
  Link_05743                 117.660
  Link_05744                 209.979
  Link_05752                  37.504
  Link_05753                   3.276
  Link_05754                  22.464
  Link_05791                   5.034
  Link_05812                 210.567
  Link_05813                 125.224
  Link_05814                 101.707
  Link_05815                 105.208
  Link_05816                  14.702
  Link_05817                  21.379
  Link_05818                  10.374
  Link_05983                  22.487
  Link_05984                  17.476
  Link_06039                   1.494
  Link_07220                 143.384
  Link_07221                 148.585
  Link_07222                 162.925
  Link_07230                 168.214
  Link_07231                 173.803
  Link_07233                 280.581
  Link_07234                 285.908
  Link_07235                 102.375
  Link_07270                  38.687
  Link_07271                  66.800
  Link_07274                  18.727
  Link_07277                  97.488
  Link_07278                 116.595
  Link_07295                 107.867
  Link_07296                 119.527
  Link_07297                 138.270
  Link_07303                   8.805
  Link_07306                  16.408
  Link_07321                  10.375
  Link_07464                  19.641
  Link_07578                  23.247
  Link_07579                 322.014
  Link_07580                 292.149
  Link_07687                  17.499
  Link_07865                  10.356
  Link_08891                  10.431
  Link_08912                  31.845
  Link1_to_ChengXi          1609.734
  Link2_to_ChengXi           387.808
  Link3_to_ChengXi           291.956
  Link_to_LaoDongLu          218.682
  Pump_ChengXi1             1004.944
  Pump_ChengXi2              462.222
  Pump_ChengXi3              429.998
  Pump_ChengXi4              414.375
  Pump_LaoDongLu1            130.362
  Pump_LaoDongLu2             63.395
  Pump_LaoDongLu3             49.111
  outfallpump               1615.129
  

  Analysis begun on:  Tue Aug 17 21:44:47 2021
  Analysis ended on:  Tue Aug 17 21:44:49 2021
>>>>>>> b040755ab93617f94f1ab7a7036927f36e763e5a
>>>>>>> ebd46bdc835ac17077bb70c3b6f6db3a4ee81ecd
  Total elapsed time: 00:00:02