
  EPA STORM WATER MANAGEMENT MODEL - VERSION 5.1 (Build 5.3.0.dev0)
  --------------------------------------------------------------

  WARNING 04: minimum elevation drop used for Conduit Link_01776
  WARNING 04: minimum elevation drop used for Conduit Link_01779
  WARNING 04: minimum elevation drop used for Conduit Link_07234
  WARNING 02: maximum depth increased for Node Node_06087
  
  *********************************************************
  NOTE: The summary statistics displayed in this report are
  based on results found at every computational time step,  
  not just on results from each reporting time step.
  *********************************************************
  
  ****************
  Analysis Options
  ****************
  Flow Units ............... CMS
  Process Models:
    Rainfall/Runoff ........ YES
    RDII ................... NO
    Snowmelt ............... NO
    Groundwater ............ NO
    Flow Routing ........... YES
    Ponding Allowed ........ YES
    Water Quality .......... YES
  Infiltration Method ...... HORTON
  Flow Routing Method ...... DYNWAVE
  Surcharge Method ......... EXTRAN
  Starting Date ............ 01/02/2011 00:00:00
  Ending Date .............. 01/02/2011 06:00:00
  Antecedent Dry Days ...... 0.0
  Report Time Step ......... 00:15:00
  Wet Time Step ............ 00:05:00
  Dry Time Step ............ 01:00:00
  Routing Time Step ........ 60.00 sec
  Variable Time Step ....... YES
  Maximum Trials ........... 8
  Number of Threads ........ 1
  Head Tolerance ........... 0.001500 m
  
  
  **************************        Volume         Depth
  Runoff Quantity Continuity     hectare-m            mm
  **************************     ---------       -------
  Total Precipitation ......         1.144        40.000
  Evaporation Loss .........         0.000         0.000
  Infiltration Loss ........         0.040         1.399
  Surface Runoff ...........         1.109        38.762
  Final Storage ............         0.000         0.009
  Continuity Error (%) .....        -0.428
  
  
  **************************           COD
  Runoff Quality Continuity             kg
  **************************    ----------
  Initial Buildup ..........         0.000
  Surface Buildup ..........         0.000
  Wet Deposition ...........      3008.738
  Sweeping Removal .........         0.000
  Infiltration Loss ........       105.264
  BMP Removal ..............         0.000
  Surface Runoff ...........      2915.654
  Remaining Buildup ........         0.706
  Continuity Error (%) .....        -0.428
  
  
  **************************        Volume        Volume
  Flow Routing Continuity        hectare-m      10^6 ltr
  **************************     ---------     ---------
  Dry Weather Inflow .......         0.153         1.529
  Wet Weather Inflow .......         1.109        11.086
  Groundwater Inflow .......         0.000         0.000
  RDII Inflow ..............         0.000         0.000
  External Inflow ..........         0.000         0.000
<<<<<<< HEAD
  External Outflow .........         0.805         8.052
  Flooding Loss ............         0.692         6.922
  Evaporation Loss .........         0.000         0.000
  Exfiltration Loss ........         0.000         0.000
  Initial Stored Volume ....         0.077         0.773
  Final Stored Volume ......         0.145         1.448
  Continuity Error (%) .....       -22.658
=======
<<<<<<< HEAD
  External Outflow .........         0.735         7.353
  Flooding Loss ............         0.786         7.861
  Evaporation Loss .........         0.000         0.000
  Exfiltration Loss ........         0.000         0.000
  Initial Stored Volume ....         0.077         0.773
  Final Stored Volume ......         0.137         1.372
  Continuity Error (%) .....       -23.886
=======
  External Outflow .........         0.785         7.848
  Flooding Loss ............         0.695         6.952
  Evaporation Loss .........         0.000         0.000
  Exfiltration Loss ........         0.000         0.000
  Initial Stored Volume ....         0.077         0.773
  Final Stored Volume ......         0.163         1.632
  Continuity Error (%) .....       -22.731
>>>>>>> b040755ab93617f94f1ab7a7036927f36e763e5a
>>>>>>> ebd46bdc835ac17077bb70c3b6f6db3a4ee81ecd
  
  
  **************************           COD
  Quality Routing Continuity            kg
  **************************    ----------
  Dry Weather Inflow .......       845.606
  Wet Weather Inflow .......      2915.643
  Groundwater Inflow .......         0.000
  RDII Inflow ..............         0.000
  External Inflow ..........         0.000
<<<<<<< HEAD
  External Outflow .........      1884.134
  Flooding Loss ............      1812.503
  Exfiltration Loss ........         0.000
  Mass Reacted .............         0.000
  Initial Stored Mass ......       427.257
  Final Stored Mass ........       312.884
  Continuity Error (%) .....         4.273
=======
<<<<<<< HEAD
  External Outflow .........      1979.949
  Flooding Loss ............      2033.618
  Exfiltration Loss ........         0.000
  Mass Reacted .............         0.000
  Initial Stored Mass ......       427.257
  Final Stored Mass ........       293.663
  Continuity Error (%) .....        -2.835
=======
  External Outflow .........      1956.070
  Flooding Loss ............      1795.641
  Exfiltration Loss ........         0.000
  Mass Reacted .............         0.000
  Initial Stored Mass ......       427.257
  Final Stored Mass ........       341.923
  Continuity Error (%) .....         2.265
>>>>>>> b040755ab93617f94f1ab7a7036927f36e763e5a
>>>>>>> ebd46bdc835ac17077bb70c3b6f6db3a4ee81ecd
  
  
  *************************
  Highest Continuity Errors
  *************************
<<<<<<< HEAD
  Node Node_04713 (-54.88%)
  Node Node_04715 (-28.86%)
  Node Node_04714 (-22.57%)
  Node Node_07272 (-19.34%)
  Node Node_04711 (-12.54%)
=======
<<<<<<< HEAD
  Node Node_04713 (-68.95%)
  Node Node_07272 (-43.85%)
  Node Node_04715 (-28.15%)
  Node Node_04714 (-20.97%)
  Node Node_04711 (-17.00%)
=======
  Node Node_04713 (-63.81%)
  Node Node_04714 (-25.41%)
  Node Node_04715 (-21.45%)
  Node Node_07272 (-20.91%)
  Node Node_04711 (-15.63%)
>>>>>>> b040755ab93617f94f1ab7a7036927f36e763e5a
>>>>>>> ebd46bdc835ac17077bb70c3b6f6db3a4ee81ecd
  
  
  ***************************
  Time-Step Critical Elements
  ***************************
<<<<<<< HEAD
  Link Link_02129 (40.05%)
  Link Link_01778 (35.37%)
  Link Link_01558 (14.93%)
  Link Link_05464 (2.11%)
  Link Link_01780 (1.62%)
=======
<<<<<<< HEAD
  Link Link_02129 (48.26%)
  Link Link_01778 (34.26%)
  Link Link_01558 (6.83%)
  Link Link_01780 (1.83%)
  Link Link_05464 (1.60%)
=======
  Link Link_02129 (54.81%)
  Link Link_01778 (33.56%)
  Link Link_05464 (2.01%)
  Link Link_01780 (1.69%)
>>>>>>> b040755ab93617f94f1ab7a7036927f36e763e5a
>>>>>>> ebd46bdc835ac17077bb70c3b6f6db3a4ee81ecd
  
  
  ********************************
  Highest Flow Instability Indexes
  ********************************
<<<<<<< HEAD
  Link Link_01558 (85)
  Link Link_01787 (84)
  Link Link_01778 (70)
  Link Link_01561 (67)
  Link Link_01800 (65)
=======
<<<<<<< HEAD
  Link Link_01787 (83)
  Link Link_01558 (77)
  Link Link_01778 (70)
  Link Link_01800 (69)
  Link Link_01777 (63)
=======
  Link Link_01558 (86)
  Link Link_01787 (81)
  Link Link_01778 (69)
  Link Link_01800 (65)
  Link Link_01561 (62)
>>>>>>> b040755ab93617f94f1ab7a7036927f36e763e5a
>>>>>>> ebd46bdc835ac17077bb70c3b6f6db3a4ee81ecd
  
  
  *************************
  Routing Time Step Summary
  *************************
  Minimum Time Step           :     5.00 sec
  Average Time Step           :     5.00 sec
  Maximum Time Step           :     5.00 sec
  Percent in Steady State     :     0.00
<<<<<<< HEAD
  Average Iterations per Step :     6.66
  Percent Not Converging      :    64.00
=======
<<<<<<< HEAD
  Average Iterations per Step :     6.65
  Percent Not Converging      :    67.80
=======
  Average Iterations per Step :     6.67
  Percent Not Converging      :    65.19
>>>>>>> b040755ab93617f94f1ab7a7036927f36e763e5a
>>>>>>> ebd46bdc835ac17077bb70c3b6f6db3a4ee81ecd
  
  
  ***************************
  Subcatchment Runoff Summary
  ***************************
  
  ------------------------------------------------------------------------------------------------------------------------------
                            Total      Total      Total      Total     Imperv       Perv      Total       Total     Peak  Runoff
                           Precip      Runon       Evap      Infil     Runoff     Runoff     Runoff      Runoff   Runoff   Coeff
  Subcatchment                 mm         mm         mm         mm         mm         mm         mm    10^6 ltr      CMS
  ------------------------------------------------------------------------------------------------------------------------------
  2707                      40.00       0.00       0.00       1.41      10.00      28.76      38.76        0.04     0.01   0.969
  2708                      40.00       0.00       0.00       1.41      10.00      28.76      38.76        0.04     0.01   0.969
  2709                      40.00       0.00       0.00       1.41      10.00      28.76      38.76        0.04     0.01   0.969
  2710                      40.00       0.00       0.00       1.41      10.00      28.76      38.76        0.04     0.01   0.969
  2712                      40.00       0.00       0.00       1.41      10.00      28.76      38.76        0.04     0.01   0.969
  2713                      40.00       0.00       0.00       1.41      10.00      28.76      38.76        0.04     0.01   0.969
  2714                      40.00       0.00       0.00       1.41      10.00      28.76      38.76        0.04     0.01   0.969
  2715                      40.00       0.00       0.00       1.41      10.00      28.76      38.76        0.04     0.01   0.969
  2716                      40.00       0.00       0.00       1.41      10.00      28.76      38.76        0.04     0.01   0.969
  2717                      40.00       0.00       0.00       1.41      10.00      28.76      38.76        0.04     0.01   0.969
  2718                      40.00       0.00       0.00       1.41      10.00      28.76      38.76        0.04     0.01   0.969
  2719                      40.00       0.00       0.00       1.41      10.00      28.76      38.76        0.04     0.01   0.969
  2721                      40.00       0.00       0.00       1.41      10.00      28.76      38.76        0.04     0.01   0.969
  2722                      40.00       0.00       0.00       1.41      10.00      28.76      38.76        0.04     0.01   0.969
  2723                      40.00       0.00       0.00       1.41      10.00      28.76      38.76        0.04     0.01   0.969
  2724                      40.00       0.00       0.00       1.41      10.00      28.76      38.76        0.04     0.01   0.969
  2725                      40.00       0.00       0.00       1.41      10.00      28.76      38.76        0.04     0.01   0.969
  2726                      40.00       0.00       0.00       1.41      10.00      28.76      38.76        0.04     0.01   0.969
  2727                      40.00       0.00       0.00       1.41      10.00      28.76      38.76        0.04     0.01   0.969
  2728                      40.00       0.00       0.00       1.41      10.00      28.76      38.76        0.04     0.01   0.969
  2729                      40.00       0.00       0.00       1.41      10.00      28.76      38.76        0.04     0.01   0.969
  2730                      40.00       0.00       0.00       1.41      10.00      28.76      38.76        0.04     0.01   0.969
  2731                      40.00       0.00       0.00       1.41      10.00      28.76      38.76        0.04     0.01   0.969
  2732                      40.00       0.00       0.00       1.41      10.00      28.76      38.76        0.04     0.01   0.969
  2733                      40.00       0.00       0.00       1.41      10.00      28.76      38.76        0.04     0.01   0.969
  2734                      40.00       0.00       0.00       1.41      10.00      28.76      38.76        0.04     0.01   0.969
  2735                      40.00       0.00       0.00       1.41      10.00      28.76      38.76        0.04     0.01   0.969
  2736                      40.00       0.00       0.00       1.41      10.00      28.76      38.76        0.04     0.01   0.969
  2737                      40.00       0.00       0.00       1.41      10.00      28.76      38.76        0.04     0.01   0.969
  2738                      40.00       0.00       0.00       1.41      10.00      28.76      38.76        0.04     0.01   0.969
  2739                      40.00       0.00       0.00       1.41      10.00      28.76      38.76        0.04     0.01   0.969
  2740                      40.00       0.00       0.00       1.41      10.00      28.76      38.76        0.04     0.01   0.969
  2741                      40.00       0.00       0.00       1.41      10.00      28.76      38.76        0.04     0.01   0.969
  2742                      40.00       0.00       0.00       1.41      10.00      28.76      38.76        0.04     0.01   0.969
  2743                      40.00       0.00       0.00       1.41      10.00      28.76      38.76        0.04     0.01   0.969
  2744                      40.00       0.00       0.00       1.41      10.00      28.76      38.76        0.04     0.01   0.969
  2745                      40.00       0.00       0.00       1.41      10.00      28.76      38.76        0.04     0.01   0.969
  2746                      40.00       0.00       0.00       1.41      10.00      28.76      38.76        0.04     0.01   0.969
  2747                      40.00       0.00       0.00       1.41      10.00      28.76      38.76        0.04     0.01   0.969
  2748                      40.00       0.00       0.00       1.41      10.00      28.76      38.76        0.04     0.01   0.969
  2749                      40.00       0.00       0.00       1.41      10.00      28.76      38.76        0.04     0.01   0.969
  2750                      40.00       0.00       0.00       1.41      10.00      28.76      38.76        0.04     0.01   0.969
  2751                      40.00       0.00       0.00       1.41      10.00      28.76      38.76        0.04     0.01   0.969
  2752                      40.00       0.00       0.00       1.41      10.00      28.76      38.76        0.04     0.01   0.969
  2753                      40.00       0.00       0.00       1.41      10.00      28.76      38.76        0.04     0.01   0.969
  2754                      40.00       0.00       0.00       1.41      10.00      28.76      38.76        0.04     0.01   0.969
  2755                      40.00       0.00       0.00       1.41      10.00      28.76      38.76        0.04     0.01   0.969
  2756                      40.00       0.00       0.00       1.41      10.00      28.76      38.76        0.04     0.01   0.969
  2964                      40.00       0.00       0.00       1.41      10.00      28.76      38.76        0.04     0.01   0.969
  2969                      40.00       0.00       0.00       1.41      10.00      28.76      38.76        0.04     0.01   0.969
  2970                      40.00       0.00       0.00       1.41      10.00      28.76      38.76        0.04     0.01   0.969
  2974                      40.00       0.00       0.00       1.41      10.00      28.76      38.76        0.04     0.01   0.969
  2975                      40.00       0.00       0.00       1.41      10.00      28.76      38.76        0.04     0.01   0.969
  2976                      40.00       0.00       0.00       1.41      10.00      28.76      38.76        0.04     0.01   0.969
  2977                      40.00       0.00       0.00       1.41      10.00      28.76      38.76        0.04     0.01   0.969
  2978                      40.00       0.00       0.00       1.41      10.00      28.76      38.76        0.04     0.01   0.969
  2979                      40.00       0.00       0.00       1.41      10.00      28.76      38.76        0.04     0.01   0.969
  2980                      40.00       0.00       0.00       1.41      10.00      28.76      38.76        0.04     0.01   0.969
  2981                      40.00       0.00       0.00       1.41      10.00      28.76      38.76        0.04     0.01   0.969
  2982                      40.00       0.00       0.00       1.41      10.00      28.76      38.76        0.04     0.01   0.969
  2984                      40.00       0.00       0.00       1.41      10.00      28.76      38.76        0.04     0.01   0.969
  2985                      40.00       0.00       0.00       1.41      10.00      28.76      38.76        0.04     0.01   0.969
  3925                      40.00       0.00       0.00       1.41      10.00      28.76      38.76        0.04     0.01   0.969
  3926                      40.00       0.00       0.00       1.41      10.00      28.76      38.76        0.04     0.01   0.969
  3927                      40.00       0.00       0.00       1.41      10.00      28.76      38.76        0.04     0.01   0.969
  3928                      40.00       0.00       0.00       1.41      10.00      28.76      38.76        0.04     0.01   0.969
  3929                      40.00       0.00       0.00       1.41      10.00      28.76      38.76        0.04     0.01   0.969
  3930                      40.00       0.00       0.00       1.41      10.00      28.76      38.76        0.04     0.01   0.969
  3931                      40.00       0.00       0.00       1.41      10.00      28.76      38.76        0.04     0.01   0.969
  3932                      40.00       0.00       0.00       1.41      10.00      28.76      38.76        0.04     0.01   0.969
  3933                      40.00       0.00       0.00       1.41      10.00      28.76      38.76        0.04     0.01   0.969
  3934                      40.00       0.00       0.00       1.41      10.00      28.76      38.76        0.04     0.01   0.969
  3935                      40.00       0.00       0.00       1.41      10.00      28.76      38.76        0.04     0.01   0.969
  3936                      40.00       0.00       0.00       1.41      10.00      28.76      38.76        0.04     0.01   0.969
  3937                      40.00       0.00       0.00       1.41      10.00      28.76      38.76        0.04     0.01   0.969
  3938                      40.00       0.00       0.00       1.41      10.00      28.76      38.76        0.04     0.01   0.969
  3939                      40.00       0.00       0.00       1.41      10.00      28.76      38.76        0.04     0.01   0.969
  3940                      40.00       0.00       0.00       1.41      10.00      28.76      38.76        0.04     0.01   0.969
  3941                      40.00       0.00       0.00       1.41      10.00      28.76      38.76        0.04     0.01   0.969
  3942                      40.00       0.00       0.00       1.41      10.00      28.76      38.76        0.04     0.01   0.969
  3943                      40.00       0.00       0.00       1.41      10.00      28.76      38.76        0.04     0.01   0.969
  3944                      40.00       0.00       0.00       1.41      10.00      28.76      38.76        0.04     0.01   0.969
  3945                      40.00       0.00       0.00       1.41      10.00      28.76      38.76        0.04     0.01   0.969
  3946                      40.00       0.00       0.00       1.41      10.00      28.76      38.76        0.04     0.01   0.969
  3947                      40.00       0.00       0.00       1.41      10.00      28.76      38.76        0.04     0.01   0.969
  3948                      40.00       0.00       0.00       1.41      10.00      28.76      38.76        0.04     0.01   0.969
  3949                      40.00       0.00       0.00       1.41      10.00      28.76      38.76        0.04     0.01   0.969
  3950                      40.00       0.00       0.00       1.41      10.00      28.76      38.76        0.04     0.01   0.969
  3951                      40.00       0.00       0.00       1.41      10.00      28.76      38.76        0.04     0.01   0.969
  3952                      40.00       0.00       0.00       1.41      10.00      28.76      38.76        0.04     0.01   0.969
  3953                      40.00       0.00       0.00       1.41      10.00      28.76      38.76        0.04     0.01   0.969
  3954                      40.00       0.00       0.00       1.41      10.00      28.76      38.76        0.04     0.01   0.969
  3955                      40.00       0.00       0.00       1.41      10.00      28.76      38.76        0.04     0.01   0.969
  3956                      40.00       0.00       0.00       1.41      10.00      28.76      38.76        0.04     0.01   0.969
  4032                      40.00       0.00       0.00       1.41      10.00      28.76      38.76        0.04     0.01   0.969
  4033                      40.00       0.00       0.00       1.41      10.00      28.76      38.76        0.04     0.01   0.969
  4041                      40.00       0.00       0.00       1.41      10.00      28.76      38.76        0.04     0.01   0.969
  4051                      40.00       0.00       0.00       1.41      10.00      28.76      38.76        0.04     0.01   0.969
  4055                      40.00       0.00       0.00       1.41      10.00      28.76      38.76        0.04     0.01   0.969
  4056                      40.00       0.00       0.00       1.41      10.00      28.76      38.76        0.04     0.01   0.969
  4058                      40.00       0.00       0.00       1.41      10.00      28.76      38.76        0.04     0.01   0.969
  4385                      40.00       0.00       0.00       1.41      10.00      28.76      38.76        0.04     0.01   0.969
  4386                      40.00       0.00       0.00       1.41      10.00      28.76      38.76        0.04     0.01   0.969
  4387                      40.00       0.00       0.00       1.41      10.00      28.76      38.76        0.04     0.01   0.969
  4388                      40.00       0.00       0.00       1.41      10.00      28.76      38.76        0.04     0.01   0.969
  4389                      40.00       0.00       0.00       1.41      10.00      28.76      38.76        0.04     0.01   0.969
  4390                      40.00       0.00       0.00       1.41      10.00      28.76      38.76        0.04     0.01   0.969
  4391                      40.00       0.00       0.00       1.41      10.00      28.76      38.76        0.04     0.01   0.969
  4392                      40.00       0.00       0.00       1.41      10.00      28.76      38.76        0.04     0.01   0.969
  4393                      40.00       0.00       0.00       1.41      10.00      28.76      38.76        0.04     0.01   0.969
  4394                      40.00       0.00       0.00       1.41      10.00      28.76      38.76        0.04     0.01   0.969
  4395                      40.00       0.00       0.00       1.41      10.00      28.76      38.76        0.04     0.01   0.969
  4396                      40.00       0.00       0.00       1.41      10.00      28.76      38.76        0.04     0.01   0.969
  4397                      40.00       0.00       0.00       1.41      10.00      28.76      38.76        0.04     0.01   0.969
  4398                      40.00       0.00       0.00       1.41      10.00      28.76      38.76        0.04     0.01   0.969
  4429                      40.00       0.00       0.00       1.41      10.00      28.76      38.76        0.04     0.01   0.969
  4430                      40.00       0.00       0.00       1.41      10.00      28.76      38.76        0.04     0.01   0.969
  4431                      40.00       0.00       0.00       1.41      10.00      28.76      38.76        0.04     0.01   0.969
  4432                      40.00       0.00       0.00       1.41      10.00      28.76      38.76        0.04     0.01   0.969
  4433                      40.00       0.00       0.00       1.41      10.00      28.76      38.76        0.04     0.01   0.969
  4434                      40.00       0.00       0.00       1.41      10.00      28.76      38.76        0.04     0.01   0.969
  4435                      40.00       0.00       0.00       1.41      10.00      28.76      38.76        0.04     0.01   0.969
  4436                      40.00       0.00       0.00       1.41      10.00      28.76      38.76        0.04     0.01   0.969
  4437                      40.00       0.00       0.00       1.41      10.00      28.76      38.76        0.04     0.01   0.969
  4438                      40.00       0.00       0.00       1.41      10.00      28.76      38.76        0.04     0.01   0.969
  4439                      40.00       0.00       0.00       1.41      10.00      28.76      38.76        0.04     0.01   0.969
  4440                      40.00       0.00       0.00       1.41      10.00      28.76      38.76        0.04     0.01   0.969
  4441                      40.00       0.00       0.00       1.41      10.00      28.76      38.76        0.04     0.01   0.969
  4442                      40.00       0.00       0.00       1.41      10.00      28.76      38.76        0.04     0.01   0.969
  4443                      40.00       0.00       0.00       1.41      10.00      28.76      38.76        0.04     0.01   0.969
  4444                      40.00       0.00       0.00       1.41      10.00      28.76      38.76        0.04     0.01   0.969
  4445                      40.00       0.00       0.00       1.41      10.00      28.76      38.76        0.04     0.01   0.969
  4446                      40.00       0.00       0.00       1.41      10.00      28.76      38.76        0.04     0.01   0.969
  4447                      40.00       0.00       0.00       1.41      10.00      28.76      38.76        0.04     0.01   0.969
  4448                      40.00       0.00       0.00       1.41      10.00      28.76      38.76        0.04     0.01   0.969
  4449                      40.00       0.00       0.00       1.41      10.00      28.76      38.76        0.04     0.01   0.969
  4450                      40.00       0.00       0.00       1.41      10.00      28.76      38.76        0.04     0.01   0.969
  4451                      40.00       0.00       0.00       1.41      10.00      28.76      38.76        0.04     0.01   0.969
  4452                      40.00       0.00       0.00       1.41      10.00      28.76      38.76        0.04     0.01   0.969
  4453                      40.00       0.00       0.00       1.41      10.00      28.76      38.76        0.04     0.01   0.969
  4454                      40.00       0.00       0.00       1.41      10.00      28.76      38.76        0.04     0.01   0.969
  4462                      40.00       0.00       0.00       1.41      10.00      28.76      38.76        0.04     0.01   0.969
  4463                      40.00       0.00       0.00       1.41      10.00      28.76      38.76        0.04     0.01   0.969
  4563                      40.00       0.00       0.00       1.41      10.00      28.76      38.76        0.04     0.01   0.969
  4564                      40.00       0.00       0.00       1.41      10.00      28.76      38.76        0.04     0.01   0.969
  4565                      40.00       0.00       0.00       1.41      10.00      28.76      38.76        0.04     0.01   0.969
  4566                      40.00       0.00       0.00       1.41      10.00      28.76      38.76        0.04     0.01   0.969
  4567                      40.00       0.00       0.00       1.41      10.00      28.76      38.76        0.04     0.01   0.969
  4568                      40.00       0.00       0.00       1.41      10.00      28.76      38.76        0.04     0.01   0.969
  4569                      40.00       0.00       0.00       1.41      10.00      28.76      38.76        0.04     0.01   0.969
  4570                      40.00       0.00       0.00       1.41      10.00      28.76      38.76        0.04     0.01   0.969
  4571                      40.00       0.00       0.00       1.41      10.00      28.76      38.76        0.04     0.01   0.969
  4572                      40.00       0.00       0.00       1.41      10.00      28.76      38.76        0.04     0.01   0.969
  4573                      40.00       0.00       0.00       1.41      10.00      28.76      38.76        0.04     0.01   0.969
  4574                      40.00       0.00       0.00       1.41      10.00      28.76      38.76        0.04     0.01   0.969
  4575                      40.00       0.00       0.00       1.41      10.00      28.76      38.76        0.04     0.01   0.969
  4576                      40.00       0.00       0.00       1.41      10.00      28.76      38.76        0.04     0.01   0.969
  4577                      40.00       0.00       0.00       1.41      10.00      28.76      38.76        0.04     0.01   0.969
  4578                      40.00       0.00       0.00       1.41      10.00      28.76      38.76        0.04     0.01   0.969
  4579                      40.00       0.00       0.00       1.41      10.00      28.76      38.76        0.04     0.01   0.969
  4580                      40.00       0.00       0.00       1.41      10.00      28.76      38.76        0.04     0.01   0.969
  4581                      40.00       0.00       0.00       1.41      10.00      28.76      38.76        0.04     0.01   0.969
  4624                      40.00       0.00       0.00       1.41      10.00      28.76      38.76        0.04     0.01   0.969
  4625                      40.00       0.00       0.00       1.41      10.00      28.76      38.76        0.04     0.01   0.969
  4644                      40.00       0.00       0.00       1.41      10.00      28.76      38.76        0.04     0.01   0.969
  4645                      40.00       0.00       0.00       1.41      10.00      28.76      38.76        0.04     0.01   0.969
  4646                      40.00       0.00       0.00       1.41      10.00      28.76      38.76        0.04     0.01   0.969
  4679                      40.00       0.00       0.00       1.41      10.00      28.76      38.76        0.04     0.01   0.969
  4680                      40.00       0.00       0.00       1.41      10.00      28.76      38.76        0.04     0.01   0.969
  4681                      40.00       0.00       0.00       1.41      10.00      28.76      38.76        0.04     0.01   0.969
  4682                      40.00       0.00       0.00       1.41      10.00      28.76      38.76        0.04     0.01   0.969
  4683                      40.00       0.00       0.00       1.41      10.00      28.76      38.76        0.04     0.01   0.969
  4711                      40.00       0.00       0.00       1.41      10.00      28.76      38.76        0.04     0.01   0.969
  4712                      40.00       0.00       0.00       1.41      10.00      28.76      38.76        0.04     0.01   0.969
  4713                      40.00       0.00       0.00       1.41      10.00      28.76      38.76        0.04     0.01   0.969
  4714                      40.00       0.00       0.00       1.41      10.00      28.76      38.76        0.04     0.01   0.969
  4715                      40.00       0.00       0.00       1.41      10.00      28.76      38.76        0.04     0.01   0.969
  4716                      40.00       0.00       0.00       1.41      10.00      28.76      38.76        0.04     0.01   0.969
  4717                      40.00       0.00       0.00       1.41      10.00      28.76      38.76        0.04     0.01   0.969
  4718                      40.00       0.00       0.00       1.41      10.00      28.76      38.76        0.04     0.01   0.969
  4722                      40.00       0.00       0.00       1.41      10.00      28.76      38.76        0.04     0.01   0.969
  4760                      40.00       0.00       0.00       1.41      10.00      28.76      38.76        0.04     0.01   0.969
  4761                      40.00       0.00       0.00       1.41      10.00      28.76      38.76        0.04     0.01   0.969
  4765                      40.00       0.00       0.00       1.41      10.00      28.76      38.76        0.04     0.01   0.969
  4766                      40.00       0.00       0.00       1.41      10.00      28.76      38.76        0.04     0.01   0.969
  4767                      40.00       0.00       0.00       1.41      10.00      28.76      38.76        0.04     0.01   0.969
  4768                      40.00       0.00       0.00       1.41      10.00      28.76      38.76        0.04     0.01   0.969
  4769                      40.00       0.00       0.00       1.41      10.00      28.76      38.76        0.04     0.01   0.969
  4855                      40.00       0.00       0.00       1.41      10.00      28.76      38.76        0.04     0.01   0.969
  4856                      40.00       0.00       0.00       1.41      10.00      28.76      38.76        0.04     0.01   0.969
  5284                      40.00       0.00       0.00       1.41      10.00      28.76      38.76        0.04     0.01   0.969
  5285                      40.00       0.00       0.00       1.41      10.00      28.76      38.76        0.04     0.01   0.969
  5286                      40.00       0.00       0.00       1.41      10.00      28.76      38.76        0.04     0.01   0.969
  5287                      40.00       0.00       0.00       1.41      10.00      28.76      38.76        0.04     0.01   0.969
  5288                      40.00       0.00       0.00       1.41      10.00      28.76      38.76        0.04     0.01   0.969
  5289                      40.00       0.00       0.00       1.41      10.00      28.76      38.76        0.04     0.01   0.969
  5290                      40.00       0.00       0.00       1.41      10.00      28.76      38.76        0.04     0.01   0.969
  5291                      40.00       0.00       0.00       1.41      10.00      28.76      38.76        0.04     0.01   0.969
  5292                      40.00       0.00       0.00       1.41      10.00      28.76      38.76        0.04     0.01   0.969
  5293                      40.00       0.00       0.00       1.41      10.00      28.76      38.76        0.04     0.01   0.969
  5294                      40.00       0.00       0.00       1.41      10.00      28.76      38.76        0.04     0.01   0.969
  5295                      40.00       0.00       0.00       1.41      10.00      28.76      38.76        0.04     0.01   0.969
  5296                      40.00       0.00       0.00       1.41      10.00      28.76      38.76        0.04     0.01   0.969
  5297                      40.00       0.00       0.00       1.41      10.00      28.76      38.76        0.04     0.01   0.969
  5298                      40.00       0.00       0.00       1.41      10.00      28.76      38.76        0.04     0.01   0.969
  5299                      40.00       0.00       0.00       1.41      10.00      28.76      38.76        0.04     0.01   0.969
  5300                      40.00       0.00       0.00       1.41      10.00      28.76      38.76        0.04     0.01   0.969
  5301                      40.00       0.00       0.00       1.41      10.00      28.76      38.76        0.04     0.01   0.969
  5302                      40.00       0.00       0.00       1.41      10.00      28.76      38.76        0.04     0.01   0.969
  5303                      40.00       0.00       0.00       1.41      10.00      28.76      38.76        0.04     0.01   0.969
  5304                      40.00       0.00       0.00       1.41      10.00      28.76      38.76        0.04     0.01   0.969
  5305                      40.00       0.00       0.00       1.41      10.00      28.76      38.76        0.04     0.01   0.969
  5306                      40.00       0.00       0.00       1.41      10.00      28.76      38.76        0.04     0.01   0.969
  5307                      40.00       0.00       0.00       1.41      10.00      28.76      38.76        0.04     0.01   0.969
  5308                      40.00       0.00       0.00       1.41      10.00      28.76      38.76        0.04     0.01   0.969
  5309                      40.00       0.00       0.00       1.41      10.00      28.76      38.76        0.04     0.01   0.969
  5310                      40.00       0.00       0.00       1.41      10.00      28.76      38.76        0.04     0.01   0.969
  5311                      40.00       0.00       0.00       1.41      10.00      28.76      38.76        0.04     0.01   0.969
  5312                      40.00       0.00       0.00       1.41      10.00      28.76      38.76        0.04     0.01   0.969
  5313                      40.00       0.00       0.00       1.41      10.00      28.76      38.76        0.04     0.01   0.969
  5314                      40.00       0.00       0.00       1.41      10.00      28.76      38.76        0.04     0.01   0.969
  5315                      40.00       0.00       0.00       1.41      10.00      28.76      38.76        0.04     0.01   0.969
  5316                      40.00       0.00       0.00       1.41      10.00      28.76      38.76        0.04     0.01   0.969
  5317                      40.00       0.00       0.00       1.41      10.00      28.76      38.76        0.04     0.01   0.969
  5318                      40.00       0.00       0.00       1.41      10.00      28.76      38.76        0.04     0.01   0.969
  5319                      40.00       0.00       0.00       1.41      10.00      28.76      38.76        0.04     0.01   0.969
  5320                      40.00       0.00       0.00       1.41      10.00      28.76      38.76        0.04     0.01   0.969
  5321                      40.00       0.00       0.00       1.41      10.00      28.76      38.76        0.04     0.01   0.969
  5322                      40.00       0.00       0.00       1.41      10.00      28.76      38.76        0.04     0.01   0.969
  5323                      40.00       0.00       0.00       1.41      10.00      28.76      38.76        0.04     0.01   0.969
  5324                      40.00       0.00       0.00       1.41      10.00      28.76      38.76        0.04     0.01   0.969
  5325                      40.00       0.00       0.00       1.41      10.00      28.76      38.76        0.04     0.01   0.969
  5326                      40.00       0.00       0.00       1.41      10.00      28.76      38.76        0.04     0.01   0.969
  5327                      40.00       0.00       0.00       1.41      10.00      28.76      38.76        0.04     0.01   0.969
  5328                      40.00       0.00       0.00       1.41      10.00      28.76      38.76        0.04     0.01   0.969
  5329                      40.00       0.00       0.00       1.41      10.00      28.76      38.76        0.04     0.01   0.969
  5330                      40.00       0.00       0.00       1.41      10.00      28.76      38.76        0.04     0.01   0.969
  5333                      40.00       0.00       0.00       1.41      10.00      28.76      38.76        0.04     0.01   0.969
  5334                      40.00       0.00       0.00       1.41      10.00      28.76      38.76        0.04     0.01   0.969
  6040                      40.00       0.00       0.00       1.41      10.00      28.76      38.76        0.04     0.01   0.969
  6041                      40.00       0.00       0.00       1.41      10.00      28.76      38.76        0.04     0.01   0.969
  6162                      40.00       0.00       0.00       1.41      10.00      28.76      38.76        0.04     0.01   0.969
  7207                      40.00       0.00       0.00       1.41      10.00      28.76      38.76        0.04     0.01   0.969
  7208                      40.00       0.00       0.00       1.41      10.00      28.76      38.76        0.04     0.01   0.969
  7213                      40.00       0.00       0.00       1.41      10.00      28.76      38.76        0.04     0.01   0.969
  7214                      40.00       0.00       0.00       1.41      10.00      28.76      38.76        0.04     0.01   0.969
  7219                      40.00       0.00       0.00       1.41      10.00      28.76      38.76        0.04     0.01   0.969
  7220                      40.00       0.00       0.00       1.41      10.00      28.76      38.76        0.04     0.01   0.969
  7221                      40.00       0.00       0.00       1.41      10.00      28.76      38.76        0.04     0.01   0.969
  7225                      40.00       0.00       0.00       1.41      10.00      28.76      38.76        0.04     0.01   0.969
  7229                      40.00       0.00       0.00       1.41      10.00      28.76      38.76        0.04     0.01   0.969
  7231                      40.00       0.00       0.00       1.41      10.00      28.76      38.76        0.04     0.01   0.969
  7268                      40.00       0.00       0.00       1.41      10.00      28.76      38.76        0.04     0.01   0.969
  7269                      40.00       0.00       0.00       1.41      10.00      28.76      38.76        0.04     0.01   0.969
  7271                      40.00       0.00       0.00       1.41      10.00      28.76      38.76        0.04     0.01   0.969
  7272                      40.00       0.00       0.00       1.41      10.00      28.76      38.76        0.04     0.01   0.969
  7273                      40.00       0.00       0.00       1.41      10.00      28.76      38.76        0.04     0.01   0.969
  7433                      40.00       0.00       0.00       1.41      10.00      28.76      38.76        0.04     0.01   0.969
  7434                      40.00       0.00       0.00       1.41      10.00      28.76      38.76        0.04     0.01   0.969
  7544                      40.00       0.00       0.00       1.41      10.00      28.76      38.76        0.04     0.01   0.969
  7545                      40.00       0.00       0.00       1.41      10.00      28.76      38.76        0.04     0.01   0.969
  8737                      40.00       0.00       0.00       1.41      10.00      28.76      38.76        0.04     0.01   0.969
  8818                      40.00       0.00       0.00       1.41      10.00      28.76      38.76        0.04     0.01   0.969
  9942                      40.00       0.00       0.00       1.41      10.00      28.76      38.76        0.04     0.01   0.969
  9957                      40.00       0.00       0.00       1.41      10.00      28.76      38.76        0.04     0.01   0.969
  4399                      40.00       0.00       0.00       1.33      10.00      28.81      38.81        0.01     0.00   0.970
  4400                      40.00       0.00       0.00       1.33      10.00      28.81      38.81        0.01     0.00   0.970
  4401                      40.00       0.00       0.00       1.33      10.00      28.81      38.81        0.01     0.00   0.970
  4402                      40.00       0.00       0.00       1.33      10.00      28.81      38.81        0.01     0.00   0.970
  4403                      40.00       0.00       0.00       1.33      10.00      28.81      38.81        0.01     0.00   0.970
  4404                      40.00       0.00       0.00       1.33      10.00      28.81      38.81        0.01     0.00   0.970
  4405                      40.00       0.00       0.00       1.33      10.00      28.81      38.81        0.01     0.00   0.970
  4406                      40.00       0.00       0.00       1.33      10.00      28.81      38.81        0.01     0.00   0.970
  4407                      40.00       0.00       0.00       1.33      10.00      28.81      38.81        0.01     0.00   0.970
  4408                      40.00       0.00       0.00       1.33      10.00      28.81      38.81        0.01     0.00   0.970
  4409                      40.00       0.00       0.00       1.33      10.00      28.81      38.81        0.01     0.00   0.970
  4410                      40.00       0.00       0.00       1.33      10.00      28.81      38.81        0.01     0.00   0.970
  4411                      40.00       0.00       0.00       1.33      10.00      28.81      38.81        0.01     0.00   0.970
  4412                      40.00       0.00       0.00       1.33      10.00      28.81      38.81        0.01     0.00   0.970
  4423                      40.00       0.00       0.00       1.33      10.00      28.81      38.81        0.01     0.00   0.970
  4424                      40.00       0.00       0.00       1.33      10.00      28.81      38.81        0.01     0.00   0.970
  4425                      40.00       0.00       0.00       1.33      10.00      28.81      38.81        0.01     0.00   0.970
  4426                      40.00       0.00       0.00       1.33      10.00      28.81      38.81        0.01     0.00   0.970
  4427                      40.00       0.00       0.00       1.33      10.00      28.81      38.81        0.01     0.00   0.970
  4428                      40.00       0.00       0.00       1.33      10.00      28.81      38.81        0.01     0.00   0.970
  4455                      40.00       0.00       0.00       1.33      10.00      28.81      38.81        0.01     0.00   0.970
  4456                      40.00       0.00       0.00       1.33      10.00      28.81      38.81        0.01     0.00   0.970
  4457                      40.00       0.00       0.00       1.33      10.00      28.81      38.81        0.01     0.00   0.970
  4458                      40.00       0.00       0.00       1.33      10.00      28.81      38.81        0.01     0.00   0.970
  4459                      40.00       0.00       0.00       1.33      10.00      28.81      38.81        0.01     0.00   0.970
  4460                      40.00       0.00       0.00       1.33      10.00      28.81      38.81        0.01     0.00   0.970
  4461                      40.00       0.00       0.00       1.33      10.00      28.81      38.81        0.01     0.00   0.970
  4464                      40.00       0.00       0.00       1.33      10.00      28.81      38.81        0.01     0.00   0.970
  4465                      40.00       0.00       0.00       1.33      10.00      28.81      38.81        0.01     0.00   0.970
  4466                      40.00       0.00       0.00       1.33      10.00      28.81      38.81        0.01     0.00   0.970
  4467                      40.00       0.00       0.00       1.33      10.00      28.81      38.81        0.01     0.00   0.970
  4468                      40.00       0.00       0.00       1.33      10.00      28.81      38.81        0.01     0.00   0.970
  4469                      40.00       0.00       0.00       1.33      10.00      28.81      38.81        0.01     0.00   0.970
  4470                      40.00       0.00       0.00       1.33      10.00      28.81      38.81        0.01     0.00   0.970
  4471                      40.00       0.00       0.00       1.33      10.00      28.81      38.81        0.01     0.00   0.970
  4472                      40.00       0.00       0.00       1.33      10.00      28.81      38.81        0.01     0.00   0.970
  4473                      40.00       0.00       0.00       1.33      10.00      28.81      38.81        0.01     0.00   0.970
  4474                      40.00       0.00       0.00       1.33      10.00      28.81      38.81        0.01     0.00   0.970
  4628                      40.00       0.00       0.00       1.33      10.00      28.81      38.81        0.01     0.00   0.970
  4631                      40.00       0.00       0.00       1.33      10.00      28.81      38.81        0.01     0.00   0.970
  4632                      40.00       0.00       0.00       1.33      10.00      28.81      38.81        0.01     0.00   0.970
  4633                      40.00       0.00       0.00       1.33      10.00      28.81      38.81        0.01     0.00   0.970
  4634                      40.00       0.00       0.00       1.33      10.00      28.81      38.81        0.01     0.00   0.970
  4637                      40.00       0.00       0.00       1.33      10.00      28.81      38.81        0.01     0.00   0.970
  4686                      40.00       0.00       0.00       1.33      10.00      28.81      38.81        0.01     0.00   0.970
  4687                      40.00       0.00       0.00       1.33      10.00      28.81      38.81        0.01     0.00   0.970
  4688                      40.00       0.00       0.00       1.33      10.00      28.81      38.81        0.01     0.00   0.970
  5032                      40.00       0.00       0.00       1.33      10.00      28.81      38.81        0.01     0.00   0.970
  5331                      40.00       0.00       0.00       1.33      10.00      28.81      38.81        0.01     0.00   0.970
  5332                      40.00       0.00       0.00       1.33      10.00      28.81      38.81        0.01     0.00   0.970
  5335                      40.00       0.00       0.00       1.33      10.00      28.81      38.81        0.01     0.00   0.970
  5336                      40.00       0.00       0.00       1.33      10.00      28.81      38.81        0.01     0.00   0.970
  5337                      40.00       0.00       0.00       1.33      10.00      28.81      38.81        0.01     0.00   0.970
  5338                      40.00       0.00       0.00       1.33      10.00      28.81      38.81        0.01     0.00   0.970
  5339                      40.00       0.00       0.00       1.33      10.00      28.81      38.81        0.01     0.00   0.970
  5340                      40.00       0.00       0.00       1.33      10.00      28.81      38.81        0.01     0.00   0.970
  5341                      40.00       0.00       0.00       1.33      10.00      28.81      38.81        0.01     0.00   0.970
  5342                      40.00       0.00       0.00       1.33      10.00      28.81      38.81        0.01     0.00   0.970
  5343                      40.00       0.00       0.00       1.33      10.00      28.81      38.81        0.01     0.00   0.970
  5344                      40.00       0.00       0.00       1.33      10.00      28.81      38.81        0.01     0.00   0.970
  5345                      40.00       0.00       0.00       1.33      10.00      28.81      38.81        0.01     0.00   0.970
  5346                      40.00       0.00       0.00       1.33      10.00      28.81      38.81        0.01     0.00   0.970
  5347                      40.00       0.00       0.00       1.33      10.00      28.81      38.81        0.01     0.00   0.970
  5348                      40.00       0.00       0.00       1.33      10.00      28.81      38.81        0.01     0.00   0.970
  5349                      40.00       0.00       0.00       1.33      10.00      28.81      38.81        0.01     0.00   0.970
  5350                      40.00       0.00       0.00       1.33      10.00      28.81      38.81        0.01     0.00   0.970
  6088                      40.00       0.00       0.00       1.33      10.00      28.81      38.81        0.01     0.00   0.970
  7275                      40.00       0.00       0.00       1.33      10.00      28.81      38.81        0.01     0.00   0.970
  9955                      40.00       0.00       0.00       1.33      10.00      28.81      38.81        0.01     0.00   0.970
  9956                      40.00       0.00       0.00       1.33      10.00      28.81      38.81        0.01     0.00   0.970
  
  
  ****************************
  Subcatchment Washoff Summary
  ****************************
  
  ----------------------------------
                                 COD
  Subcatchment                    kg
  ----------------------------------
  2707                        10.194
  2708                        10.194
  2709                        10.194
  2710                        10.194
  2712                        10.194
  2713                        10.194
  2714                        10.194
  2715                        10.194
  2716                        10.194
  2717                        10.194
  2718                        10.194
  2719                        10.194
  2721                        10.194
  2722                        10.194
  2723                        10.194
  2724                        10.194
  2725                        10.194
  2726                        10.194
  2727                        10.194
  2728                        10.194
  2729                        10.194
  2730                        10.194
  2731                        10.194
  2732                        10.194
  2733                        10.194
  2734                        10.194
  2735                        10.194
  2736                        10.194
  2737                        10.194
  2738                        10.194
  2739                        10.194
  2740                        10.194
  2741                        10.194
  2742                        10.194
  2743                        10.194
  2744                        10.194
  2745                        10.194
  2746                        10.194
  2747                        10.194
  2748                        10.194
  2749                        10.194
  2750                        10.194
  2751                        10.194
  2752                        10.194
  2753                        10.194
  2754                        10.194
  2755                        10.194
  2756                        10.194
  2964                        10.194
  2969                        10.194
  2970                        10.194
  2974                        10.194
  2975                        10.194
  2976                        10.194
  2977                        10.194
  2978                        10.194
  2979                        10.194
  2980                        10.194
  2981                        10.194
  2982                        10.194
  2984                        10.194
  2985                        10.194
  3925                        10.194
  3926                        10.194
  3927                        10.194
  3928                        10.194
  3929                        10.194
  3930                        10.194
  3931                        10.194
  3932                        10.194
  3933                        10.194
  3934                        10.194
  3935                        10.194
  3936                        10.194
  3937                        10.194
  3938                        10.194
  3939                        10.194
  3940                        10.194
  3941                        10.194
  3942                        10.194
  3943                        10.194
  3944                        10.194
  3945                        10.194
  3946                        10.194
  3947                        10.194
  3948                        10.194
  3949                        10.194
  3950                        10.194
  3951                        10.194
  3952                        10.194
  3953                        10.194
  3954                        10.194
  3955                        10.194
  3956                        10.194
  4032                        10.194
  4033                        10.194
  4041                        10.194
  4051                        10.194
  4055                        10.194
  4056                        10.194
  4058                        10.194
  4385                        10.194
  4386                        10.194
  4387                        10.194
  4388                        10.194
  4389                        10.194
  4390                        10.194
  4391                        10.194
  4392                        10.194
  4393                        10.194
  4394                        10.194
  4395                        10.194
  4396                        10.194
  4397                        10.194
  4398                        10.194
  4429                        10.194
  4430                        10.194
  4431                        10.194
  4432                        10.194
  4433                        10.194
  4434                        10.194
  4435                        10.194
  4436                        10.194
  4437                        10.194
  4438                        10.194
  4439                        10.194
  4440                        10.194
  4441                        10.194
  4442                        10.194
  4443                        10.194
  4444                        10.194
  4445                        10.194
  4446                        10.194
  4447                        10.194
  4448                        10.194
  4449                        10.194
  4450                        10.194
  4451                        10.194
  4452                        10.194
  4453                        10.194
  4454                        10.194
  4462                        10.194
  4463                        10.194
  4563                        10.194
  4564                        10.194
  4565                        10.194
  4566                        10.194
  4567                        10.194
  4568                        10.194
  4569                        10.194
  4570                        10.194
  4571                        10.194
  4572                        10.194
  4573                        10.194
  4574                        10.194
  4575                        10.194
  4576                        10.194
  4577                        10.194
  4578                        10.194
  4579                        10.194
  4580                        10.194
  4581                        10.194
  4624                        10.194
  4625                        10.194
  4644                        10.194
  4645                        10.194
  4646                        10.194
  4679                        10.194
  4680                        10.194
  4681                        10.194
  4682                        10.194
  4683                        10.194
  4711                        10.194
  4712                        10.194
  4713                        10.194
  4714                        10.194
  4715                        10.194
  4716                        10.194
  4717                        10.194
  4718                        10.194
  4722                        10.194
  4760                        10.194
  4761                        10.194
  4765                        10.194
  4766                        10.194
  4767                        10.194
  4768                        10.194
  4769                        10.194
  4855                        10.194
  4856                        10.194
  5284                        10.194
  5285                        10.194
  5286                        10.194
  5287                        10.194
  5288                        10.194
  5289                        10.194
  5290                        10.194
  5291                        10.194
  5292                        10.194
  5293                        10.194
  5294                        10.194
  5295                        10.194
  5296                        10.194
  5297                        10.194
  5298                        10.194
  5299                        10.194
  5300                        10.194
  5301                        10.194
  5302                        10.194
  5303                        10.194
  5304                        10.194
  5305                        10.194
  5306                        10.194
  5307                        10.194
  5308                        10.194
  5309                        10.194
  5310                        10.194
  5311                        10.194
  5312                        10.194
  5313                        10.194
  5314                        10.194
  5315                        10.194
  5316                        10.194
  5317                        10.194
  5318                        10.194
  5319                        10.194
  5320                        10.194
  5321                        10.194
  5322                        10.194
  5323                        10.194
  5324                        10.194
  5325                        10.194
  5326                        10.194
  5327                        10.194
  5328                        10.194
  5329                        10.194
  5330                        10.194
  5333                        10.194
  5334                        10.194
  6040                        10.194
  6041                        10.194
  6162                        10.194
  7207                        10.194
  7208                        10.194
  7213                        10.194
  7214                        10.194
  7219                        10.194
  7220                        10.194
  7221                        10.194
  7225                        10.194
  7229                        10.194
  7231                        10.194
  7268                        10.194
  7269                        10.194
  7271                        10.194
  7272                        10.194
  7273                        10.194
  7433                        10.194
  7434                        10.194
  7544                        10.194
  7545                        10.194
  8737                        10.194
  8818                        10.194
  9942                        10.194
  9957                        10.194
  4399                         3.062
  4400                         3.062
  4401                         3.062
  4402                         3.062
  4403                         3.062
  4404                         3.062
  4405                         3.062
  4406                         3.062
  4407                         3.062
  4408                         3.062
  4409                         3.062
  4410                         3.062
  4411                         3.062
  4412                         3.062
  4423                         3.062
  4424                         3.062
  4425                         3.062
  4426                         3.062
  4427                         3.062
  4428                         3.062
  4455                         3.062
  4456                         3.062
  4457                         3.062
  4458                         3.062
  4459                         3.062
  4460                         3.062
  4461                         3.062
  4464                         3.062
  4465                         3.062
  4466                         3.062
  4467                         3.062
  4468                         3.062
  4469                         3.062
  4470                         3.062
  4471                         3.062
  4472                         3.062
  4473                         3.062
  4474                         3.062
  4628                         3.062
  4631                         3.062
  4632                         3.062
  4633                         3.062
  4634                         3.062
  4637                         3.062
  4686                         3.062
  4687                         3.062
  4688                         3.062
  5032                         3.062
  5331                         3.062
  5332                         3.062
  5335                         3.062
  5336                         3.062
  5337                         3.062
  5338                         3.062
  5339                         3.062
  5340                         3.062
  5341                         3.062
  5342                         3.062
  5343                         3.062
  5344                         3.062
  5345                         3.062
  5346                         3.062
  5347                         3.062
  5348                         3.062
  5349                         3.062
  5350                         3.062
  6088                         3.062
  7275                         3.062
  9955                         3.062
  9956                         3.062
  ----------------------------------
  System                    2915.654
  
  
  ******************
  Node Depth Summary
  ******************
  
  ---------------------------------------------------------------------------------
                                 Average  Maximum  Maximum  Time of Max    Reported
                                   Depth    Depth      HGL   Occurrence   Max Depth
  Node                 Type       Meters   Meters   Meters  days hr:min      Meters
  ---------------------------------------------------------------------------------
<<<<<<< HEAD
  Node_02706           JUNCTION     2.38     4.30   101.14     0  03:03        0.00
  Node_02707           JUNCTION     0.90     1.93   101.36     0  02:16        0.00
  Node_02708           JUNCTION     0.73     1.74   101.50     0  02:10        0.00
  Node_02709           JUNCTION     0.83     1.93   101.56     0  02:10        0.00
  Node_02711           JUNCTION     0.53     1.64   101.55     0  02:10        0.00
  Node_02712           JUNCTION     0.54     1.63   101.53     0  02:10        0.00
  Node_02713           JUNCTION     0.58     1.64   101.49     0  02:10        0.00
  Node_02714           JUNCTION     0.22     1.10   101.50     0  02:10        0.00
  Node_02715           JUNCTION     0.60     1.60   101.41     0  02:16        0.00
  Node_02716           JUNCTION     0.66     1.68   101.40     0  02:16        0.00
  Node_02717           JUNCTION     0.73     1.75   101.39     0  02:16        0.00
  Node_02718           JUNCTION     0.74     1.78   101.38     0  02:16        0.00
  Node_02720           JUNCTION     0.77     1.81   101.38     0  02:16        0.00
  Node_02721           JUNCTION     1.07     2.12   101.36     0  02:16        0.00
  Node_02722           JUNCTION     0.13     0.17   101.97     0  03:00        0.00
  Node_02723           JUNCTION     1.01     2.07   101.36     0  02:17        0.00
  Node_02724           JUNCTION     0.87     1.94   101.36     0  02:16        0.00
  Node_02725           JUNCTION     0.91     1.97   101.33     0  02:16        0.00
  Node_02726           JUNCTION     0.99     2.05   101.32     0  02:17        0.00
  Node_02727           JUNCTION     1.10     2.17   101.30     0  02:16        0.00
  Node_02728           JUNCTION     0.40     1.22   101.30     0  02:16        0.00
  Node_02729           JUNCTION     1.15     2.22   101.28     0  02:16        0.00
  Node_02730           JUNCTION     1.17     2.24   101.26     0  02:17        0.00
  Node_02731           JUNCTION     1.59     2.65   101.24     0  02:17        0.00
  Node_02732           JUNCTION     1.16     2.19   101.21     0  02:15        0.00
  Node_02733           JUNCTION     1.14     2.22   101.22     0  02:39        0.00
  Node_02734           JUNCTION     1.41     2.52   101.23     0  02:35        0.00
  Node_02735           JUNCTION     1.30     2.42   101.23     0  02:39        0.00
  Node_02736           JUNCTION     1.47     2.61   101.22     0  02:40        0.00
  Node_02737           JUNCTION     1.44     2.61   101.23     0  02:39        0.00
  Node_02738           JUNCTION     1.25     2.46   101.23     0  02:40        0.00
  Node_02739           JUNCTION     1.09     2.36   101.23     0  02:40        0.00
  Node_02740           JUNCTION     1.08     2.39   101.23     0  02:39        0.00
  Node_02741           JUNCTION     0.72     1.93   101.23     0  02:40        0.00
  Node_02742           JUNCTION     1.08     2.42   101.22     0  02:40        0.00
  Node_02743           JUNCTION     1.46     2.85   101.22     0  02:46        0.00
  Node_02744           JUNCTION     0.61     1.88   101.22     0  02:40        0.00
  Node_02745           JUNCTION     1.17     2.60   101.22     0  02:40        0.00
  Node_02746           JUNCTION     1.04     2.52   101.21     0  02:58        0.00
  Node_02747           JUNCTION     0.19     0.85   101.21     0  02:56        0.00
  Node_02748           JUNCTION     0.16     0.76   101.21     0  03:12        0.00
  Node_02749           JUNCTION     1.02     2.56   101.20     0  02:55        0.00
  Node_02750           JUNCTION     0.99     2.58   101.19     0  02:56        0.00
  Node_02751           JUNCTION     0.95     2.58   101.18     0  02:56        0.00
  Node_02752           JUNCTION     0.94     2.62   101.17     0  03:10        0.00
  Node_02753           JUNCTION     0.94     2.67   101.15     0  03:14        0.00
  Node_02754           JUNCTION     0.90     2.82   101.14     0  03:03        0.00
  Node_02755           JUNCTION     1.83     3.74   101.14     0  03:03        0.00
  Node_02963           JUNCTION     0.53     1.49   101.40     0  02:16        0.00
  Node_02968           JUNCTION     0.28     1.11   101.23     0  02:40        0.00
  Node_02969           JUNCTION     0.34     1.34   101.22     0  02:40        0.00
  Node_02973           JUNCTION     1.35     3.25   101.14     0  03:03        0.00
  Node_02974           JUNCTION     1.37     3.66   100.79     0  03:14        0.00
  Node_02975           JUNCTION     1.38     3.67   100.80     0  03:14        0.00
  Node_02976           JUNCTION     1.47     3.76   100.95     0  03:13        0.00
  Node_02977           JUNCTION     1.57     3.84   101.17     0  02:58        0.00
  Node_02978           JUNCTION     1.47     3.74   101.27     0  03:04        0.00
  Node_02979           JUNCTION     1.27     3.57   100.69     0  03:13        0.00
  Node_02980           JUNCTION     1.14     3.48   100.57     0  03:15        0.00
  Node_02981           JUNCTION     1.09     3.48   100.43     0  03:12        0.00
  Node_02983           JUNCTION     0.28     1.11   101.23     0  02:40        0.00
  Node_02984           JUNCTION     1.90     4.15   101.13     0  03:14        0.00
  Node_03924           JUNCTION     0.26     1.00   101.82     0  02:41        0.00
  Node_03925           JUNCTION     0.56     1.57   101.94     0  03:06        0.00
  Node_03926           JUNCTION     0.09     0.47   101.94     0  03:13        0.00
  Node_03927           JUNCTION     0.54     1.56   101.94     0  03:06        0.00
  Node_03928           JUNCTION     0.56     1.59   101.93     0  03:12        0.00
  Node_03929           JUNCTION     0.57     1.62   101.93     0  03:04        0.00
  Node_03930           JUNCTION     0.59     1.67   101.93     0  03:07        0.00
  Node_03931           JUNCTION     0.58     1.68   101.93     0  03:07        0.00
  Node_03932           JUNCTION     0.62     1.74   101.91     0  03:05        0.00
  Node_03933           JUNCTION     0.62     1.76   101.88     0  03:08        0.00
  Node_03934           JUNCTION     0.27     1.02   101.89     0  02:59        0.00
  Node_03935           JUNCTION     0.68     1.88   101.85     0  03:00        0.00
  Node_03936           JUNCTION     0.69     1.89   101.82     0  03:13        0.00
  Node_03937           JUNCTION     1.28     1.62   101.78     0  03:10        0.00
  Node_03938           JUNCTION     1.15     3.13   102.32     0  01:32        0.00
  Node_03939           JUNCTION     1.23     3.27   102.31     0  01:32        0.00
  Node_03940           JUNCTION     1.28     3.37   102.29     0  01:32        0.00
  Node_03941           JUNCTION     1.35     3.46   102.27     0  01:32        0.00
  Node_03942           JUNCTION     1.37     3.48   102.23     0  02:30        0.00
  Node_03943           JUNCTION     1.44     3.58   102.19     0  01:32        0.00
  Node_03944           JUNCTION     1.52     3.69   102.17     0  01:32        0.00
  Node_03945           JUNCTION     1.57     3.78   102.20     0  02:42        0.00
  Node_03946           JUNCTION     1.63     3.85   102.21     0  02:50        0.00
  Node_03947           JUNCTION     1.88     4.30   102.19     0  02:51        0.00
  Node_03948           JUNCTION     1.84     4.31   102.16     0  02:55        0.00
  Node_03949           JUNCTION     1.93     4.42   102.12     0  02:51        0.00
  Node_03950           JUNCTION     1.80     4.32   102.09     0  02:55        0.00
  Node_03951           JUNCTION     1.77     4.32   102.01     0  03:14        0.00
  Node_03952           JUNCTION     1.76     4.32   101.91     0  02:59        0.00
  Node_03953           JUNCTION     1.64     4.21   101.78     0  02:58        0.00
  Node_03954           JUNCTION     2.49     5.02   101.60     0  03:13        0.00
  Node_03955           JUNCTION     1.41     3.90   101.39     0  03:12        0.00
  Node_04031           JUNCTION     0.32     0.98   102.21     0  03:02        0.00
  Node_04032           JUNCTION     1.57     3.85   102.21     0  02:55        0.00
  Node_04040           JUNCTION     0.57     1.77   102.31     0  01:31        0.00
  Node_04050           JUNCTION     0.40     1.61   102.58     0  03:25        0.00
  Node_04054           JUNCTION     0.19     0.79   101.93     0  03:14        0.00
  Node_04055           JUNCTION     0.35     1.09   101.90     0  03:13        0.00
  Node_04057           JUNCTION     0.41     1.47   101.78     0  03:07        0.00
  Node_04384           JUNCTION     1.65     3.86   101.44     0  02:56        0.00
  Node_04385           JUNCTION     1.37     3.58   101.49     0  02:56        0.00
  Node_04386           JUNCTION     1.37     3.58   101.52     0  02:59        0.00
  Node_04387           JUNCTION     1.37     3.58   101.54     0  02:56        0.00
  Node_04388           JUNCTION     1.37     3.57   101.57     0  03:14        0.00
  Node_04389           JUNCTION     0.36     1.21   101.58     0  02:56        0.00
  Node_04390           JUNCTION     1.37     3.56   101.58     0  02:59        0.00
  Node_04391           JUNCTION     1.37     3.54   101.61     0  02:59        0.00
  Node_04392           JUNCTION     1.49     3.66   101.62     0  02:59        0.00
  Node_04393           JUNCTION     1.37     3.52   101.63     0  02:59        0.00
  Node_04394           JUNCTION     0.58     1.99   101.63     0  02:56        0.00
  Node_04395           JUNCTION     1.37     3.50   101.65     0  02:55        0.00
  Node_04396           JUNCTION     1.36     3.46   101.66     0  02:58        0.00
  Node_04397           JUNCTION     0.48     1.77   101.66     0  02:58        0.00
  Node_04428           JUNCTION     1.38     3.45   101.67     0  02:55        0.00
  Node_04429           JUNCTION     1.37     3.43   101.68     0  02:50        0.00
  Node_04430           JUNCTION     1.36     3.41   101.69     0  03:00        0.00
  Node_04431           JUNCTION     1.18     3.11   101.68     0  02:57        0.00
  Node_04432           JUNCTION     1.11     3.00   101.68     0  03:03        0.00
  Node_04433           JUNCTION     0.97     2.80   101.68     0  02:58        0.00
  Node_04434           JUNCTION     1.23     3.09   101.68     0  02:56        0.00
  Node_04435           JUNCTION     1.09     2.90   101.68     0  02:54        0.00
  Node_04436           JUNCTION     1.49     3.28   101.68     0  02:53        0.00
  Node_04437           JUNCTION     1.63     3.39   101.68     0  02:55        0.00
  Node_04438           JUNCTION     1.93     3.68   101.69     0  02:48        0.00
  Node_04439           JUNCTION     1.00     2.72   101.70     0  03:14        0.00
  Node_04440           JUNCTION     0.99     2.70   101.72     0  03:10        0.00
  Node_04441           JUNCTION     0.78     2.38   101.71     0  02:57        0.00
  Node_04442           JUNCTION     1.07     2.76   101.73     0  02:55        0.00
  Node_04443           JUNCTION     0.94     2.60   101.74     0  02:39        0.00
  Node_04444           JUNCTION     0.94     2.57   101.75     0  03:00        0.00
  Node_04445           JUNCTION     0.88     2.50   101.77     0  02:57        0.00
  Node_04446           JUNCTION     0.86     2.45   101.79     0  03:10        0.00
  Node_04447           JUNCTION     0.82     2.37   101.81     0  03:10        0.00
  Node_04448           JUNCTION     0.84     2.38   101.84     0  03:10        0.00
  Node_04449           JUNCTION     0.85     2.40   101.86     0  03:10        0.00
  Node_04450           JUNCTION     1.01     2.56   101.88     0  03:10        0.00
  Node_04451           JUNCTION     0.84     2.36   101.91     0  03:10        0.00
  Node_04452           JUNCTION     0.64     2.10   101.92     0  03:10        0.00
  Node_04453           JUNCTION     0.48     1.70   101.92     0  03:10        0.00
  Node_04461           JUNCTION     0.81     2.29   101.91     0  01:49        0.00
  Node_04462           JUNCTION     0.80     2.28   101.93     0  03:10        0.00
  Node_04562           JUNCTION     0.74     2.46   102.05     0  01:49        0.00
  Node_04563           JUNCTION     1.05     2.92   102.04     0  01:49        0.00
  Node_04564           JUNCTION     0.84     2.67   102.05     0  01:49        0.00
  Node_04565           JUNCTION     0.86     2.69   102.05     0  01:49        0.00
  Node_04566           JUNCTION     0.98     2.85   102.04     0  01:49        0.00
  Node_04567           JUNCTION     0.93     2.81   102.03     0  01:49        0.00
  Node_04568           JUNCTION     0.93     2.82   102.01     0  01:49        0.00
  Node_04569           JUNCTION     1.06     3.01   101.98     0  01:49        0.00
  Node_04570           JUNCTION     0.69     2.25   101.98     0  01:49        0.00
  Node_04571           JUNCTION     1.06     2.99   101.92     0  01:49        0.00
  Node_04572           JUNCTION     2.44     4.40   101.93     0  02:21        0.00
  Node_04573           JUNCTION     2.11     4.09   101.93     0  02:45        0.00
  Node_04574           JUNCTION     2.53     3.61   101.91     0  02:56        0.00
  Node_04575           JUNCTION     2.58     4.60   101.91     0  03:13        0.00
  Node_04576           JUNCTION     1.19     3.23   101.88     0  03:13        0.00
  Node_04577           JUNCTION     1.21     3.26   101.84     0  02:50        0.00
  Node_04578           JUNCTION     1.23     3.30   101.80     0  02:46        0.00
  Node_04579           JUNCTION     1.27     3.35   101.76     0  02:58        0.00
  Node_04580           JUNCTION     0.62     1.98   101.76     0  01:49        0.00
  Node_04623           JUNCTION     0.48     1.83   101.49     0  02:59        0.00
  Node_04624           JUNCTION     0.68     2.22   101.68     0  02:56        0.00
  Node_04643           JUNCTION     0.59     1.95   101.86     0  03:10        0.00
  Node_04644           JUNCTION     0.58     1.91   101.75     0  03:10        0.00
  Node_04645           JUNCTION     0.76     2.05   101.65     0  01:48        0.00
  Node_04678           JUNCTION     0.56     1.95   101.67     0  02:55        0.00
  Node_04679           JUNCTION     0.30     1.31   101.49     0  02:59        0.00
  Node_04680           JUNCTION     1.42     3.64   101.41     0  02:58        0.00
  Node_04681           JUNCTION     1.40     3.63   101.35     0  03:14        0.00
  Node_04682           JUNCTION     0.25     0.92   101.93     0  02:51        0.00
  Node_04710           JUNCTION     0.66     1.99   101.98     0  04:07        0.00
[...]
  Link_01784                 366.778
  Link_01785                 377.481
  Link_01786                  63.833
  Link_01787                  35.084
  Link_01788                 479.568
  Link_01789                 491.751
  Link_01790                  19.221
  Link_01791                  18.153
  Link_01792                  18.048
  Link_01793                 551.262
  Link_01794                 563.361
  Link_01795                 575.266
  Link_01796                 587.404
  Link_01797                 597.104
  Link_01798                1111.359
  Link_01799                1104.056
  Link_01800                1119.893
  Link_01801                 642.491
  Link_01802                1048.538
  Link_01803                1093.163
  Link_01804                 924.350
  Link_01805                 912.974
  Link_01806                 901.595
  Link_01807                 889.669
  Link_01808                  17.264
  Link_01809                 861.578
  Link_01810                 839.169
  Link_01811                  10.181
  Link_01812                  55.368
  Link_01813                  45.798
  Link_01814                 796.454
  Link_01815                 784.951
  Link_01816                 761.325
  Link_01817                  11.928
  Link_01818                 721.750
  Link_01819                 694.742
  Link_01820                  15.417
  Link_01821                  28.140
  Link_01822                   6.594
  Link_01823                 222.823
  Link_01824                 219.314
  Link_01825                  59.433
  Link_01826                  62.629
  Link_01827                   3.061
  Link_01828                  68.879
  Link_01829                   6.574
  Link_01830                  78.715
  Link_01831                   3.060
  Link_01832                  85.001
  Link_01833                  88.213
  Link_01834                  94.342
>>>>>>> b040755ab93617f94f1ab7a7036927f36e763e5a
>>>>>>> ebd46bdc835ac17077bb70c3b6f6db3a4ee81ecd
  Link_01835                   3.060
  Link_01836                  47.761
  Link_01837                  20.930
  Link_01838                  33.996
<<<<<<< HEAD
  Link_01839                  44.462
=======
  Link_01839                  44.463
>>>>>>> ebd46bdc835ac17077bb70c3b6f6db3a4ee81ecd
  Link_01840                  41.345
  Link_01841                  38.245
  Link_01842                  30.306
  Link_01843                  24.030
  Link_01844                  20.922
<<<<<<< HEAD
  Link_02074                  13.526
  Link_02075                 143.154
  Link_02076                 169.534
  Link_02077                  24.139
  Link_02078                 204.094
  Link_02079                  15.702
  Link_02080                 230.353
  Link_02081                 240.915
  Link_02082                 251.473
  Link_02083                  15.661
  Link_02084                  14.244
  Link_02085                 419.433
  Link_02086                 416.023
  Link_02087                 415.409
  Link_02088                 414.329
  Link_02089                 413.702
  Link_02090                 552.644
  Link_02091                 541.746
  Link_02092                 530.660
  Link_02093                  13.770
  Link_02094                 494.221
  Link_02095                 483.171
  Link_02096                 516.746
  Link_02097                  20.815
  Link_02098                  89.121
  Link_02099                 505.798
  Link_02100                 495.151
  Link_02101                  49.690
  Link_02102                 504.556
  Link_02103                 474.962
  Link_02104                  28.395
  Link_02105                 385.169
  Link_02106                  17.638
  Link_02107                  10.452
  Link_02108                 363.303
  Link_02109                 352.996
  Link_02110                 324.990
  Link_02111                 213.218
  Link_02112                  18.996
  Link_02113                 155.675
  Link_02114                  46.201
  Link_02115                  42.998
  Link_02116                  39.867
  Link_02117                  36.786
  Link_02118                  33.676
=======
<<<<<<< HEAD
  Link_02074                  13.562
  Link_02075                 126.001
  Link_02076                 152.317
  Link_02077                  23.951
  Link_02078                 186.717
  Link_02079                  15.633
  Link_02080                 212.917
  Link_02081                 223.503
  Link_02082                 234.048
  Link_02083                  15.658
  Link_02084                  14.180
  Link_02085                 498.621
  Link_02086                 500.054
  Link_02087                 501.316
  Link_02088                 501.075
  Link_02089                 501.516
  Link_02090                 558.753
  Link_02091                 547.930
  Link_02092                 537.087
  Link_02093                  13.775
  Link_02094                 501.173
  Link_02095                 490.231
  Link_02096                 529.342
  Link_02097                  20.757
  Link_02098                  93.696
  Link_02099                 518.575
  Link_02100                 507.883
  Link_02101                  62.230
  Link_02102                 528.633
  Link_02103                 499.126
  Link_02104                  28.527
  Link_02105                 408.349
  Link_02106                  17.712
  Link_02107                  10.345
  Link_02108                 388.100
  Link_02109                 378.132
  Link_02110                 324.991
  Link_02111                 213.222
  Link_02112                  19.055
  Link_02113                 155.676
  Link_02114                  46.201
  Link_02115                  42.999
  Link_02116                  39.868
  Link_02117                  36.786
  Link_02118                  33.677
>>>>>>> ebd46bdc835ac17077bb70c3b6f6db3a4ee81ecd
  Link_02123                   6.605
  Link_02124                   9.695
  Link_02125                  12.792
  Link_02126                  15.845
<<<<<<< HEAD
=======
=======
  Link_02074                  13.482
  Link_02075                 141.720
  Link_02076                 167.977
  Link_02077                  24.499
  Link_02078                 202.504
  Link_02079                  15.730
  Link_02080                 228.673
  Link_02081                 239.240
  Link_02082                 249.740
  Link_02083                  15.680
  Link_02084                  14.439
  Link_02085                 477.050
  Link_02086                 480.158
  Link_02087                 481.917
  Link_02088                 483.710
  Link_02089                 485.534
  Link_02090                 578.350
  Link_02091                 567.884
  Link_02092                 557.331
  Link_02093                  13.683
  Link_02094                 522.487
  Link_02095                 511.987
  Link_02096                 533.182
  Link_02097                  20.750
  Link_02098                  78.835
  Link_02099                 522.682
  Link_02100                 512.229
  Link_02101                  39.633
  Link_02102                 508.197
  Link_02103                 478.930
  Link_02104                  28.467
  Link_02105                 391.254
  Link_02106                  17.769
  Link_02107                  10.406
  Link_02108                 370.762
  Link_02109                 360.537
  Link_02110                 324.590
  Link_02111                 213.140
  Link_02112                  18.969
  Link_02113                 155.676
  Link_02114                  46.202
  Link_02115                  42.999
  Link_02116                  39.868
  Link_02117                  36.787
  Link_02118                  33.677
  Link_02123                   6.605
  Link_02124                   9.696
  Link_02125                  12.792
  Link_02126                  15.846
>>>>>>> b040755ab93617f94f1ab7a7036927f36e763e5a
>>>>>>> ebd46bdc835ac17077bb70c3b6f6db3a4ee81ecd
  Link_02127                  30.560
  Link_02128                  27.447
  Link_02129                  24.379
  Link_02130                  21.294
  Link_02131                  18.178
  Link_02132                  15.056
  Link_02133                  11.936
<<<<<<< HEAD
  Link_02134                 158.914
  Link_02135                 162.181
  Link_02136                 172.018
  Link_02137                   6.606
  Link_02138                 197.954
  Link_02139                 194.724
  Link_02140                 191.427
  Link_02141                 188.266
  Link_02142                 184.955
  Link_02143                 175.208
  Link_02383                  10.351
  Link_02384                  20.783
  Link_02385                  31.579
  Link_02386                  27.953
  Link_02387                  69.575
  Link_02388                  79.657
  Link_02389                  28.038
  Link_02390                  90.020
  Link_02391                 128.578
  Link_02392                  39.152
  Link_02393                 177.515
  Link_05459                 103.529
  Link_05460                 200.032
  Link_05461                 233.670
  Link_05462                 403.491
  Link_05463                 631.572
  Link_05464                  42.221
  Link_05496                1847.016
  Link_05662                  58.090
  Link_05663                  11.949
  Link_05664                  39.997
  Link_05665                 390.812
  Link_05677                 236.612
  Link_05678                  20.926
  Link_05720                1017.455
  Link_05721                 806.193
  Link_05722                  18.935
  Link_05723                 106.221
  Link_05725                  18.961
  Link_05726                 421.242
  Link_05727                  12.002
  Link_05728                 505.813
  Link_05729                 515.248
  Link_05730                 321.659
  Link_05731                 216.357
  Link_05732                 210.060
  Link_05742                  28.085
  Link_05743                 102.818
  Link_05744                 262.526
  Link_05752                 260.067
  Link_05753                   4.838
  Link_05754                  27.157
  Link_05791                   6.592
  Link_05812                 238.012
  Link_05813                 144.666
  Link_05814                 111.108
  Link_05815                 145.833
  Link_05816                  22.524
  Link_05817                  32.320
  Link_05818                  11.936
  Link_05983                  32.797
  Link_05984                  22.575
  Link_06039                   3.056
  Link_07220                 131.319
  Link_07221                 141.682
  Link_07222                 173.490
  Link_07230                 183.957
  Link_07231                 194.435
  Link_07233                 396.332
  Link_07234                 406.771
  Link_07235                 192.029
  Link_07270                  31.432
  Link_07271                  45.865
  Link_07274                  20.191
  Link_07277                  59.882
  Link_07278                  73.873
  Link_07295                  80.282
  Link_07296                  91.668
  Link_07297                 120.976
  Link_07303                  13.912
  Link_07306                  13.830
  Link_07321                  11.937
  Link_07464                  24.845
  Link_07578                  28.244
  Link_07579                 463.184
  Link_07580                 424.777
  Link_07687                  22.755
  Link_07865                  11.920
  Link_08891                  15.433
  Link_08912                  36.777
  Link1_to_ChengXi          1954.630
  Link2_to_ChengXi           405.834
  Link3_to_ChengXi           417.901
  Link_to_LaoDongLu          328.216
  Pump_ChengXi1             1098.053
  Pump_ChengXi2              648.920
  Pump_ChengXi3              568.766
  Pump_ChengXi4              568.766
  Pump_LaoDongLu1            163.190
  Pump_LaoDongLu2             93.525
  Pump_LaoDongLu3             86.400
  outfallpump               1884.250
  

  Analysis begun on:  Mon Aug 16 03:43:56 2021
  Analysis ended on:  Mon Aug 16 03:43:58 2021
=======
  Link_02134                 158.915
<<<<<<< HEAD
  Link_02135                 162.185
  Link_02136                 172.022
  Link_02137                   6.606
  Link_02138                 197.958
  Link_02139                 194.728
  Link_02140                 191.431
  Link_02141                 188.267
  Link_02142                 184.959
  Link_02143                 175.212
  Link_02383                  10.532
  Link_02384                  21.318
  Link_02385                  32.342
  Link_02386                  27.952
  Link_02387                  70.677
  Link_02388                  80.795
  Link_02389                  28.044
  Link_02390                  90.998
  Link_02391                 128.818
  Link_02392                  39.260
  Link_02393                 177.389
  Link_05459                 103.949
  Link_05460                 198.678
  Link_05461                 232.602
  Link_05462                 501.413
  Link_05463                 563.938
  Link_05464                  43.064
  Link_05496                1588.150
  Link_05662                  58.258
  Link_05663                  12.770
  Link_05664                  49.145
  Link_05665                 359.350
  Link_05677                 223.086
  Link_05678                  20.914
  Link_05720                 971.723
  Link_05721                 761.416
  Link_05722                  19.031
  Link_05723                 106.221
  Link_05725                  18.962
  Link_05726                 497.707
  Link_05727                  12.011
  Link_05728                 512.542
  Link_05729                 539.214
  Link_05730                 321.663
  Link_05731                 216.360
  Link_05732                 210.063
  Link_05742                  28.185
  Link_05743                  89.677
  Link_05744                 245.221
  Link_05752                 292.497
  Link_05753                   4.838
  Link_05754                  27.157
  Link_05791                   6.592
  Link_05812                 237.960
  Link_05813                 144.711
  Link_05814                 111.248
  Link_05815                 145.891
  Link_05816                  22.524
  Link_05817                  32.321
  Link_05818                  11.936
  Link_05983                  33.013
  Link_05984                  22.757
  Link_06039                   3.056
  Link_07220                 150.588
  Link_07221                 160.790
  Link_07222                 136.949
  Link_07230                 140.591
  Link_07231                 146.492
  Link_07233                 340.527
  Link_07234                 350.941
  Link_07235                 183.936
  Link_07270                  36.508
  Link_07271                  57.002
  Link_07274                  20.959
  Link_07277                  77.395
  Link_07278                  95.685
  Link_07295                  97.216
  Link_07296                 110.662
  Link_07297                 140.182
  Link_07303                  14.436
  Link_07306                  76.332
  Link_07321                  11.937
  Link_07464                  24.859
  Link_07578                  28.352
  Link_07579                 487.272
  Link_07580                 448.466
  Link_07687                  22.773
  Link_07865                  11.920
  Link_08891                  15.407
  Link_08912                  36.742
  Link1_to_ChengXi          1694.465
  Link2_to_ChengXi           374.388
  Link3_to_ChengXi           361.665
  Link_to_LaoDongLu          328.217
  Pump_ChengXi1              809.926
  Pump_ChengXi2              657.325
  Pump_ChengXi3              470.817
  Pump_ChengXi4              399.747
  Pump_LaoDongLu1            194.484
  Pump_LaoDongLu2             86.961
  Pump_LaoDongLu3             86.961
  outfallpump               1980.116
  

  Analysis begun on:  Mon Aug 16 03:26:08 2021
  Analysis ended on:  Mon Aug 16 03:26:10 2021
=======
  Link_02135                 162.177
  Link_02136                 172.010
  Link_02137                   6.606
  Link_02138                 197.959
  Link_02139                 194.689
  Link_02140                 191.433
  Link_02141                 188.171
  Link_02142                 184.981
  Link_02143                 175.248
  Link_02383                  10.348
  Link_02384                  20.806
  Link_02385                  31.550
  Link_02386                  27.912
  Link_02387                  69.620
  Link_02388                  79.707
  Link_02389                  28.007
  Link_02390                  90.041
  Link_02391                 128.515
  Link_02392                  38.770
  Link_02393                 177.453
  Link_05459                 108.272
  Link_05460                 214.196
  Link_05461                 244.484
  Link_05462                 330.516
  Link_05463                 539.365
  Link_05464                  42.157
  Link_05496                1773.255
  Link_05662                  58.063
  Link_05663                  11.947
  Link_05664                  47.041
  Link_05665                 376.257
  Link_05677                 222.057
  Link_05678                  20.928
  Link_05720                1036.335
  Link_05721                 827.307
  Link_05722                  18.984
  Link_05723                 106.222
  Link_05725                  18.962
  Link_05726                 475.232
  Link_05727                  12.023
  Link_05728                 533.082
  Link_05729                 518.279
  Link_05730                 320.756
  Link_05731                 216.483
  Link_05732                 209.980
  Link_05742                  27.961
  Link_05743                 101.359
  Link_05744                 260.164
  Link_05752                 259.423
  Link_05753                   4.838
  Link_05754                  27.158
  Link_05791                   6.574
  Link_05812                 238.149
  Link_05813                 144.783
  Link_05814                 111.271
  Link_05815                 145.916
  Link_05816                  22.524
  Link_05817                  32.321
  Link_05818                  11.936
  Link_05983                  32.856
  Link_05984                  22.634
  Link_06039                   3.056
  Link_07220                 136.196
  Link_07221                 146.563
  Link_07222                 164.541
  Link_07230                 175.015
  Link_07231                 185.484
  Link_07233                 387.384
  Link_07234                 397.826
  Link_07235                 192.020
  Link_07270                  32.713
  Link_07271                  49.304
  Link_07274                  20.146
  Link_07277                  64.344
  Link_07278                  80.257
  Link_07295                  85.113
  Link_07296                  96.477
  Link_07297                 125.877
  Link_07303                  13.982
  Link_07306                  21.055
  Link_07321                  11.937
  Link_07464                  24.837
  Link_07578                  28.263
  Link_07579                 468.698
  Link_07580                 429.945
  Link_07687                  22.768
  Link_07865                  11.920
  Link_08891                  15.382
  Link_08912                  36.753
  Link1_to_ChengXi          1881.656
  Link2_to_ChengXi           391.270
  Link3_to_ChengXi           408.965
  Link_to_LaoDongLu          327.735
  Pump_ChengXi1             1070.595
  Pump_ChengXi2              765.875
  Pump_ChengXi3              487.537
  Pump_ChengXi4              442.621
  Pump_LaoDongLu1            177.093
  Pump_LaoDongLu2            140.201
  Pump_LaoDongLu3             33.212
  outfallpump               1956.186
  

  Analysis begun on:  Tue Aug 17 21:44:25 2021
  Analysis ended on:  Tue Aug 17 21:44:27 2021
>>>>>>> b040755ab93617f94f1ab7a7036927f36e763e5a
>>>>>>> ebd46bdc835ac17077bb70c3b6f6db3a4ee81ecd
  Total elapsed time: 00:00:02