
  EPA STORM WATER MANAGEMENT MODEL - VERSION 5.1 (Build 5.3.0.dev0)
  --------------------------------------------------------------

  WARNING 04: minimum elevation drop used for Conduit Link_01776
  WARNING 04: minimum elevation drop used for Conduit Link_01779
  WARNING 04: minimum elevation drop used for Conduit Link_07234
  WARNING 02: maximum depth increased for Node Node_06087
  
  *********************************************************
  NOTE: The summary statistics displayed in this report are
  based on results found at every computational time step,  
  not just on results from each reporting time step.
  *********************************************************
  
  ****************
  Analysis Options
  ****************
  Flow Units ............... CMS
  Process Models:
    Rainfall/Runoff ........ YES
    RDII ................... NO
    Snowmelt ............... NO
    Groundwater ............ NO
    Flow Routing ........... YES
    Ponding Allowed ........ YES
    Water Quality .......... YES
  Infiltration Method ...... HORTON
  Flow Routing Method ...... DYNWAVE
  Surcharge Method ......... EXTRAN
  Starting Date ............ 01/02/2011 00:00:00
  Ending Date .............. 01/02/2011 06:00:00
  Antecedent Dry Days ...... 0.0
  Report Time Step ......... 00:15:00
  Wet Time Step ............ 00:05:00
  Dry Time Step ............ 01:00:00
  Routing Time Step ........ 60.00 sec
  Variable Time Step ....... YES
  Maximum Trials ........... 8
  Number of Threads ........ 1
  Head Tolerance ........... 0.001500 m
  
  
  **************************        Volume         Depth
  Runoff Quantity Continuity     hectare-m            mm
  **************************     ---------       -------
  Total Precipitation ......         0.429        15.000
  Evaporation Loss .........         0.000         0.000
  Infiltration Loss ........         0.034         1.201
  Surface Runoff ...........         0.397        13.871
  Final Storage ............         0.000         0.009
  Continuity Error (%) .....        -0.545
  
  
  **************************           COD
  Runoff Quality Continuity             kg
  **************************    ----------
  Initial Buildup ..........         0.000
  Surface Buildup ..........         0.000
  Wet Deposition ...........      1128.277
  Sweeping Removal .........         0.000
  Infiltration Loss ........        90.337
  BMP Removal ..............         0.000
  Surface Runoff ...........      1043.384
  Remaining Buildup ........         0.706
  Continuity Error (%) .....        -0.545
  
  
  **************************        Volume        Volume
  Flow Routing Continuity        hectare-m      10^6 ltr
  **************************     ---------     ---------
  Dry Weather Inflow .......         0.153         1.529
  Wet Weather Inflow .......         0.397         3.967
  Groundwater Inflow .......         0.000         0.000
  RDII Inflow ..............         0.000         0.000
  External Inflow ..........         0.000         0.000
<<<<<<< HEAD
  External Outflow .........         0.518         5.178
  Flooding Loss ............         0.064         0.639
  Evaporation Loss .........         0.000         0.000
  Exfiltration Loss ........         0.000         0.000
  Initial Stored Volume ....         0.077         0.773
  Final Stored Volume ......         0.050         0.497
  Continuity Error (%) .....        -0.719
=======
<<<<<<< HEAD
  External Outflow .........         0.511         5.110
  Flooding Loss ............         0.071         0.712
  Evaporation Loss .........         0.000         0.000
  Exfiltration Loss ........         0.000         0.000
  Initial Stored Volume ....         0.077         0.773
  Final Stored Volume ......         0.050         0.495
  Continuity Error (%) .....        -0.767
=======
  External Outflow .........         0.528         5.281
  Flooding Loss ............         0.054         0.536
  Evaporation Loss .........         0.000         0.000
  Exfiltration Loss ........         0.000         0.000
  Initial Stored Volume ....         0.077         0.773
  Final Stored Volume ......         0.050         0.498
  Continuity Error (%) .....        -0.731
>>>>>>> b040755ab93617f94f1ab7a7036927f36e763e5a
>>>>>>> ebd46bdc835ac17077bb70c3b6f6db3a4ee81ecd
  
  
  **************************           COD
  Quality Routing Continuity            kg
  **************************    ----------
  Dry Weather Inflow .......       845.606
  Wet Weather Inflow .......      1043.281
  Groundwater Inflow .......         0.000
  RDII Inflow ..............         0.000
  External Inflow ..........         0.000
<<<<<<< HEAD
  External Outflow .........      1218.237
  Flooding Loss ............       184.571
  Exfiltration Loss ........         0.000
  Mass Reacted .............         0.000
  Initial Stored Mass ......       427.257
  Final Stored Mass ........       201.737
  Continuity Error (%) .....        30.723
=======
<<<<<<< HEAD
  External Outflow .........      1646.110
  Flooding Loss ............       206.277
  Exfiltration Loss ........         0.000
  Mass Reacted .............         0.000
  Initial Stored Mass ......       427.257
  Final Stored Mass ........       202.958
  Continuity Error (%) .....        11.260
=======
  External Outflow .........      1332.750
  Flooding Loss ............       154.728
  Exfiltration Loss ........         0.000
  Mass Reacted .............         0.000
  Initial Stored Mass ......       427.257
  Final Stored Mass ........       202.302
  Continuity Error (%) .....        27.043
>>>>>>> b040755ab93617f94f1ab7a7036927f36e763e5a
>>>>>>> ebd46bdc835ac17077bb70c3b6f6db3a4ee81ecd
  
  
  *************************
  Highest Continuity Errors
  *************************
<<<<<<< HEAD
  Node Node_04461 (-1.27%)
  Node Node_04563 (1.23%)
  Node Node_04451 (-1.18%)
=======
<<<<<<< HEAD
  Node Node_04451 (-1.24%)
  Node Node_04563 (1.21%)
  Node Node_04461 (-1.02%)
=======
  Node Node_04451 (-1.42%)
  Node Node_04461 (-1.38%)
  Node Node_04563 (1.25%)
>>>>>>> b040755ab93617f94f1ab7a7036927f36e763e5a
>>>>>>> ebd46bdc835ac17077bb70c3b6f6db3a4ee81ecd
  
  
  ***************************
  Time-Step Critical Elements
  ***************************
<<<<<<< HEAD
  Link Link_01778 (93.98%)
  Link Link_01558 (4.77%)
=======
<<<<<<< HEAD
  Link Link_01778 (93.96%)
  Link Link_01558 (5.05%)
=======
  Link Link_01778 (93.52%)
  Link Link_01558 (5.30%)
>>>>>>> b040755ab93617f94f1ab7a7036927f36e763e5a
>>>>>>> ebd46bdc835ac17077bb70c3b6f6db3a4ee81ecd
  
  
  ********************************
  Highest Flow Instability Indexes
  ********************************
<<<<<<< HEAD
  Link Link_01558 (26)
  Link Link_01778 (26)
  Link Link_01323 (23)
  Link Link_01335 (22)
  Link Link_01336 (21)
=======
<<<<<<< HEAD
  Link Link_01558 (28)
  Link Link_01323 (28)
  Link Link_01810 (27)
  Link Link_01800 (27)
  Link Link_01335 (26)
=======
  Link Link_01558 (26)
  Link Link_01778 (25)
  Link Link_01323 (25)
  Link Link_01335 (25)
  Link Link_01336 (24)
>>>>>>> b040755ab93617f94f1ab7a7036927f36e763e5a
>>>>>>> ebd46bdc835ac17077bb70c3b6f6db3a4ee81ecd
  
  
  *************************
  Routing Time Step Summary
  *************************
  Minimum Time Step           :     5.00 sec
  Average Time Step           :     5.00 sec
  Maximum Time Step           :     5.00 sec
  Percent in Steady State     :     0.00
<<<<<<< HEAD
  Average Iterations per Step :     3.45
  Percent Not Converging      :    10.72
=======
<<<<<<< HEAD
  Average Iterations per Step :     3.67
  Percent Not Converging      :    10.88
=======
  Average Iterations per Step :     3.50
  Percent Not Converging      :    10.49
>>>>>>> b040755ab93617f94f1ab7a7036927f36e763e5a
>>>>>>> ebd46bdc835ac17077bb70c3b6f6db3a4ee81ecd
  
  
  ***************************
  Subcatchment Runoff Summary
  ***************************
  
  ------------------------------------------------------------------------------------------------------------------------------
                            Total      Total      Total      Total     Imperv       Perv      Total       Total     Peak  Runoff
                           Precip      Runon       Evap      Infil     Runoff     Runoff     Runoff      Runoff   Runoff   Coeff
  Subcatchment                 mm         mm         mm         mm         mm         mm         mm    10^6 ltr      CMS
  ------------------------------------------------------------------------------------------------------------------------------
  2707                      15.00       0.00       0.00       1.21       3.75      10.11      13.86        0.01     0.00   0.924
  2708                      15.00       0.00       0.00       1.21       3.75      10.11      13.86        0.01     0.00   0.924
  2709                      15.00       0.00       0.00       1.21       3.75      10.11      13.86        0.01     0.00   0.924
  2710                      15.00       0.00       0.00       1.21       3.75      10.11      13.86        0.01     0.00   0.924
  2712                      15.00       0.00       0.00       1.21       3.75      10.11      13.86        0.01     0.00   0.924
  2713                      15.00       0.00       0.00       1.21       3.75      10.11      13.86        0.01     0.00   0.924
  2714                      15.00       0.00       0.00       1.21       3.75      10.11      13.86        0.01     0.00   0.924
  2715                      15.00       0.00       0.00       1.21       3.75      10.11      13.86        0.01     0.00   0.924
  2716                      15.00       0.00       0.00       1.21       3.75      10.11      13.86        0.01     0.00   0.924
  2717                      15.00       0.00       0.00       1.21       3.75      10.11      13.86        0.01     0.00   0.924
  2718                      15.00       0.00       0.00       1.21       3.75      10.11      13.86        0.01     0.00   0.924
  2719                      15.00       0.00       0.00       1.21       3.75      10.11      13.86        0.01     0.00   0.924
  2721                      15.00       0.00       0.00       1.21       3.75      10.11      13.86        0.01     0.00   0.924
  2722                      15.00       0.00       0.00       1.21       3.75      10.11      13.86        0.01     0.00   0.924
  2723                      15.00       0.00       0.00       1.21       3.75      10.11      13.86        0.01     0.00   0.924
  2724                      15.00       0.00       0.00       1.21       3.75      10.11      13.86        0.01     0.00   0.924
  2725                      15.00       0.00       0.00       1.21       3.75      10.11      13.86        0.01     0.00   0.924
  2726                      15.00       0.00       0.00       1.21       3.75      10.11      13.86        0.01     0.00   0.924
  2727                      15.00       0.00       0.00       1.21       3.75      10.11      13.86        0.01     0.00   0.924
  2728                      15.00       0.00       0.00       1.21       3.75      10.11      13.86        0.01     0.00   0.924
  2729                      15.00       0.00       0.00       1.21       3.75      10.11      13.86        0.01     0.00   0.924
  2730                      15.00       0.00       0.00       1.21       3.75      10.11      13.86        0.01     0.00   0.924
  2731                      15.00       0.00       0.00       1.21       3.75      10.11      13.86        0.01     0.00   0.924
  2732                      15.00       0.00       0.00       1.21       3.75      10.11      13.86        0.01     0.00   0.924
  2733                      15.00       0.00       0.00       1.21       3.75      10.11      13.86        0.01     0.00   0.924
  2734                      15.00       0.00       0.00       1.21       3.75      10.11      13.86        0.01     0.00   0.924
  2735                      15.00       0.00       0.00       1.21       3.75      10.11      13.86        0.01     0.00   0.924
  2736                      15.00       0.00       0.00       1.21       3.75      10.11      13.86        0.01     0.00   0.924
  2737                      15.00       0.00       0.00       1.21       3.75      10.11      13.86        0.01     0.00   0.924
  2738                      15.00       0.00       0.00       1.21       3.75      10.11      13.86        0.01     0.00   0.924
  2739                      15.00       0.00       0.00       1.21       3.75      10.11      13.86        0.01     0.00   0.924
  2740                      15.00       0.00       0.00       1.21       3.75      10.11      13.86        0.01     0.00   0.924
  2741                      15.00       0.00       0.00       1.21       3.75      10.11      13.86        0.01     0.00   0.924
  2742                      15.00       0.00       0.00       1.21       3.75      10.11      13.86        0.01     0.00   0.924
  2743                      15.00       0.00       0.00       1.21       3.75      10.11      13.86        0.01     0.00   0.924
  2744                      15.00       0.00       0.00       1.21       3.75      10.11      13.86        0.01     0.00   0.924
  2745                      15.00       0.00       0.00       1.21       3.75      10.11      13.86        0.01     0.00   0.924
  2746                      15.00       0.00       0.00       1.21       3.75      10.11      13.86        0.01     0.00   0.924
  2747                      15.00       0.00       0.00       1.21       3.75      10.11      13.86        0.01     0.00   0.924
  2748                      15.00       0.00       0.00       1.21       3.75      10.11      13.86        0.01     0.00   0.924
  2749                      15.00       0.00       0.00       1.21       3.75      10.11      13.86        0.01     0.00   0.924
  2750                      15.00       0.00       0.00       1.21       3.75      10.11      13.86        0.01     0.00   0.924
  2751                      15.00       0.00       0.00       1.21       3.75      10.11      13.86        0.01     0.00   0.924
  2752                      15.00       0.00       0.00       1.21       3.75      10.11      13.86        0.01     0.00   0.924
  2753                      15.00       0.00       0.00       1.21       3.75      10.11      13.86        0.01     0.00   0.924
  2754                      15.00       0.00       0.00       1.21       3.75      10.11      13.86        0.01     0.00   0.924
  2755                      15.00       0.00       0.00       1.21       3.75      10.11      13.86        0.01     0.00   0.924
  2756                      15.00       0.00       0.00       1.21       3.75      10.11      13.86        0.01     0.00   0.924
  2964                      15.00       0.00       0.00       1.21       3.75      10.11      13.86        0.01     0.00   0.924
  2969                      15.00       0.00       0.00       1.21       3.75      10.11      13.86        0.01     0.00   0.924
  2970                      15.00       0.00       0.00       1.21       3.75      10.11      13.86        0.01     0.00   0.924
  2974                      15.00       0.00       0.00       1.21       3.75      10.11      13.86        0.01     0.00   0.924
  2975                      15.00       0.00       0.00       1.21       3.75      10.11      13.86        0.01     0.00   0.924
  2976                      15.00       0.00       0.00       1.21       3.75      10.11      13.86        0.01     0.00   0.924
  2977                      15.00       0.00       0.00       1.21       3.75      10.11      13.86        0.01     0.00   0.924
  2978                      15.00       0.00       0.00       1.21       3.75      10.11      13.86        0.01     0.00   0.924
  2979                      15.00       0.00       0.00       1.21       3.75      10.11      13.86        0.01     0.00   0.924
  2980                      15.00       0.00       0.00       1.21       3.75      10.11      13.86        0.01     0.00   0.924
  2981                      15.00       0.00       0.00       1.21       3.75      10.11      13.86        0.01     0.00   0.924
  2982                      15.00       0.00       0.00       1.21       3.75      10.11      13.86        0.01     0.00   0.924
  2984                      15.00       0.00       0.00       1.21       3.75      10.11      13.86        0.01     0.00   0.924
  2985                      15.00       0.00       0.00       1.21       3.75      10.11      13.86        0.01     0.00   0.924
  3925                      15.00       0.00       0.00       1.21       3.75      10.11      13.86        0.01     0.00   0.924
  3926                      15.00       0.00       0.00       1.21       3.75      10.11      13.86        0.01     0.00   0.924
  3927                      15.00       0.00       0.00       1.21       3.75      10.11      13.86        0.01     0.00   0.924
  3928                      15.00       0.00       0.00       1.21       3.75      10.11      13.86        0.01     0.00   0.924
  3929                      15.00       0.00       0.00       1.21       3.75      10.11      13.86        0.01     0.00   0.924
  3930                      15.00       0.00       0.00       1.21       3.75      10.11      13.86        0.01     0.00   0.924
  3931                      15.00       0.00       0.00       1.21       3.75      10.11      13.86        0.01     0.00   0.924
  3932                      15.00       0.00       0.00       1.21       3.75      10.11      13.86        0.01     0.00   0.924
  3933                      15.00       0.00       0.00       1.21       3.75      10.11      13.86        0.01     0.00   0.924
  3934                      15.00       0.00       0.00       1.21       3.75      10.11      13.86        0.01     0.00   0.924
  3935                      15.00       0.00       0.00       1.21       3.75      10.11      13.86        0.01     0.00   0.924
  3936                      15.00       0.00       0.00       1.21       3.75      10.11      13.86        0.01     0.00   0.924
  3937                      15.00       0.00       0.00       1.21       3.75      10.11      13.86        0.01     0.00   0.924
  3938                      15.00       0.00       0.00       1.21       3.75      10.11      13.86        0.01     0.00   0.924
  3939                      15.00       0.00       0.00       1.21       3.75      10.11      13.86        0.01     0.00   0.924
  3940                      15.00       0.00       0.00       1.21       3.75      10.11      13.86        0.01     0.00   0.924
  3941                      15.00       0.00       0.00       1.21       3.75      10.11      13.86        0.01     0.00   0.924
  3942                      15.00       0.00       0.00       1.21       3.75      10.11      13.86        0.01     0.00   0.924
  3943                      15.00       0.00       0.00       1.21       3.75      10.11      13.86        0.01     0.00   0.924
  3944                      15.00       0.00       0.00       1.21       3.75      10.11      13.86        0.01     0.00   0.924
  3945                      15.00       0.00       0.00       1.21       3.75      10.11      13.86        0.01     0.00   0.924
  3946                      15.00       0.00       0.00       1.21       3.75      10.11      13.86        0.01     0.00   0.924
  3947                      15.00       0.00       0.00       1.21       3.75      10.11      13.86        0.01     0.00   0.924
  3948                      15.00       0.00       0.00       1.21       3.75      10.11      13.86        0.01     0.00   0.924
  3949                      15.00       0.00       0.00       1.21       3.75      10.11      13.86        0.01     0.00   0.924
  3950                      15.00       0.00       0.00       1.21       3.75      10.11      13.86        0.01     0.00   0.924
  3951                      15.00       0.00       0.00       1.21       3.75      10.11      13.86        0.01     0.00   0.924
  3952                      15.00       0.00       0.00       1.21       3.75      10.11      13.86        0.01     0.00   0.924
  3953                      15.00       0.00       0.00       1.21       3.75      10.11      13.86        0.01     0.00   0.924
  3954                      15.00       0.00       0.00       1.21       3.75      10.11      13.86        0.01     0.00   0.924
  3955                      15.00       0.00       0.00       1.21       3.75      10.11      13.86        0.01     0.00   0.924
  3956                      15.00       0.00       0.00       1.21       3.75      10.11      13.86        0.01     0.00   0.924
  4032                      15.00       0.00       0.00       1.21       3.75      10.11      13.86        0.01     0.00   0.924
  4033                      15.00       0.00       0.00       1.21       3.75      10.11      13.86        0.01     0.00   0.924
  4041                      15.00       0.00       0.00       1.21       3.75      10.11      13.86        0.01     0.00   0.924
  4051                      15.00       0.00       0.00       1.21       3.75      10.11      13.86        0.01     0.00   0.924
  4055                      15.00       0.00       0.00       1.21       3.75      10.11      13.86        0.01     0.00   0.924
  4056                      15.00       0.00       0.00       1.21       3.75      10.11      13.86        0.01     0.00   0.924
  4058                      15.00       0.00       0.00       1.21       3.75      10.11      13.86        0.01     0.00   0.924
  4385                      15.00       0.00       0.00       1.21       3.75      10.11      13.86        0.01     0.00   0.924
  4386                      15.00       0.00       0.00       1.21       3.75      10.11      13.86        0.01     0.00   0.924
  4387                      15.00       0.00       0.00       1.21       3.75      10.11      13.86        0.01     0.00   0.924
  4388                      15.00       0.00       0.00       1.21       3.75      10.11      13.86        0.01     0.00   0.924
  4389                      15.00       0.00       0.00       1.21       3.75      10.11      13.86        0.01     0.00   0.924
  4390                      15.00       0.00       0.00       1.21       3.75      10.11      13.86        0.01     0.00   0.924
  4391                      15.00       0.00       0.00       1.21       3.75      10.11      13.86        0.01     0.00   0.924
  4392                      15.00       0.00       0.00       1.21       3.75      10.11      13.86        0.01     0.00   0.924
  4393                      15.00       0.00       0.00       1.21       3.75      10.11      13.86        0.01     0.00   0.924
  4394                      15.00       0.00       0.00       1.21       3.75      10.11      13.86        0.01     0.00   0.924
  4395                      15.00       0.00       0.00       1.21       3.75      10.11      13.86        0.01     0.00   0.924
  4396                      15.00       0.00       0.00       1.21       3.75      10.11      13.86        0.01     0.00   0.924
  4397                      15.00       0.00       0.00       1.21       3.75      10.11      13.86        0.01     0.00   0.924
  4398                      15.00       0.00       0.00       1.21       3.75      10.11      13.86        0.01     0.00   0.924
  4429                      15.00       0.00       0.00       1.21       3.75      10.11      13.86        0.01     0.00   0.924
  4430                      15.00       0.00       0.00       1.21       3.75      10.11      13.86        0.01     0.00   0.924
  4431                      15.00       0.00       0.00       1.21       3.75      10.11      13.86        0.01     0.00   0.924
  4432                      15.00       0.00       0.00       1.21       3.75      10.11      13.86        0.01     0.00   0.924
  4433                      15.00       0.00       0.00       1.21       3.75      10.11      13.86        0.01     0.00   0.924
  4434                      15.00       0.00       0.00       1.21       3.75      10.11      13.86        0.01     0.00   0.924
  4435                      15.00       0.00       0.00       1.21       3.75      10.11      13.86        0.01     0.00   0.924
  4436                      15.00       0.00       0.00       1.21       3.75      10.11      13.86        0.01     0.00   0.924
  4437                      15.00       0.00       0.00       1.21       3.75      10.11      13.86        0.01     0.00   0.924
  4438                      15.00       0.00       0.00       1.21       3.75      10.11      13.86        0.01     0.00   0.924
  4439                      15.00       0.00       0.00       1.21       3.75      10.11      13.86        0.01     0.00   0.924
  4440                      15.00       0.00       0.00       1.21       3.75      10.11      13.86        0.01     0.00   0.924
  4441                      15.00       0.00       0.00       1.21       3.75      10.11      13.86        0.01     0.00   0.924
  4442                      15.00       0.00       0.00       1.21       3.75      10.11      13.86        0.01     0.00   0.924
  4443                      15.00       0.00       0.00       1.21       3.75      10.11      13.86        0.01     0.00   0.924
  4444                      15.00       0.00       0.00       1.21       3.75      10.11      13.86        0.01     0.00   0.924
  4445                      15.00       0.00       0.00       1.21       3.75      10.11      13.86        0.01     0.00   0.924
  4446                      15.00       0.00       0.00       1.21       3.75      10.11      13.86        0.01     0.00   0.924
  4447                      15.00       0.00       0.00       1.21       3.75      10.11      13.86        0.01     0.00   0.924
  4448                      15.00       0.00       0.00       1.21       3.75      10.11      13.86        0.01     0.00   0.924
  4449                      15.00       0.00       0.00       1.21       3.75      10.11      13.86        0.01     0.00   0.924
  4450                      15.00       0.00       0.00       1.21       3.75      10.11      13.86        0.01     0.00   0.924
  4451                      15.00       0.00       0.00       1.21       3.75      10.11      13.86        0.01     0.00   0.924
  4452                      15.00       0.00       0.00       1.21       3.75      10.11      13.86        0.01     0.00   0.924
  4453                      15.00       0.00       0.00       1.21       3.75      10.11      13.86        0.01     0.00   0.924
  4454                      15.00       0.00       0.00       1.21       3.75      10.11      13.86        0.01     0.00   0.924
  4462                      15.00       0.00       0.00       1.21       3.75      10.11      13.86        0.01     0.00   0.924
  4463                      15.00       0.00       0.00       1.21       3.75      10.11      13.86        0.01     0.00   0.924
  4563                      15.00       0.00       0.00       1.21       3.75      10.11      13.86        0.01     0.00   0.924
  4564                      15.00       0.00       0.00       1.21       3.75      10.11      13.86        0.01     0.00   0.924
  4565                      15.00       0.00       0.00       1.21       3.75      10.11      13.86        0.01     0.00   0.924
  4566                      15.00       0.00       0.00       1.21       3.75      10.11      13.86        0.01     0.00   0.924
  4567                      15.00       0.00       0.00       1.21       3.75      10.11      13.86        0.01     0.00   0.924
  4568                      15.00       0.00       0.00       1.21       3.75      10.11      13.86        0.01     0.00   0.924
  4569                      15.00       0.00       0.00       1.21       3.75      10.11      13.86        0.01     0.00   0.924
  4570                      15.00       0.00       0.00       1.21       3.75      10.11      13.86        0.01     0.00   0.924
  4571                      15.00       0.00       0.00       1.21       3.75      10.11      13.86        0.01     0.00   0.924
  4572                      15.00       0.00       0.00       1.21       3.75      10.11      13.86        0.01     0.00   0.924
  4573                      15.00       0.00       0.00       1.21       3.75      10.11      13.86        0.01     0.00   0.924
  4574                      15.00       0.00       0.00       1.21       3.75      10.11      13.86        0.01     0.00   0.924
  4575                      15.00       0.00       0.00       1.21       3.75      10.11      13.86        0.01     0.00   0.924
  4576                      15.00       0.00       0.00       1.21       3.75      10.11      13.86        0.01     0.00   0.924
  4577                      15.00       0.00       0.00       1.21       3.75      10.11      13.86        0.01     0.00   0.924
  4578                      15.00       0.00       0.00       1.21       3.75      10.11      13.86        0.01     0.00   0.924
  4579                      15.00       0.00       0.00       1.21       3.75      10.11      13.86        0.01     0.00   0.924
  4580                      15.00       0.00       0.00       1.21       3.75      10.11      13.86        0.01     0.00   0.924
  4581                      15.00       0.00       0.00       1.21       3.75      10.11      13.86        0.01     0.00   0.924
  4624                      15.00       0.00       0.00       1.21       3.75      10.11      13.86        0.01     0.00   0.924
  4625                      15.00       0.00       0.00       1.21       3.75      10.11      13.86        0.01     0.00   0.924
  4644                      15.00       0.00       0.00       1.21       3.75      10.11      13.86        0.01     0.00   0.924
  4645                      15.00       0.00       0.00       1.21       3.75      10.11      13.86        0.01     0.00   0.924
  4646                      15.00       0.00       0.00       1.21       3.75      10.11      13.86        0.01     0.00   0.924
  4679                      15.00       0.00       0.00       1.21       3.75      10.11      13.86        0.01     0.00   0.924
  4680                      15.00       0.00       0.00       1.21       3.75      10.11      13.86        0.01     0.00   0.924
  4681                      15.00       0.00       0.00       1.21       3.75      10.11      13.86        0.01     0.00   0.924
  4682                      15.00       0.00       0.00       1.21       3.75      10.11      13.86        0.01     0.00   0.924
  4683                      15.00       0.00       0.00       1.21       3.75      10.11      13.86        0.01     0.00   0.924
  4711                      15.00       0.00       0.00       1.21       3.75      10.11      13.86        0.01     0.00   0.924
  4712                      15.00       0.00       0.00       1.21       3.75      10.11      13.86        0.01     0.00   0.924
  4713                      15.00       0.00       0.00       1.21       3.75      10.11      13.86        0.01     0.00   0.924
  4714                      15.00       0.00       0.00       1.21       3.75      10.11      13.86        0.01     0.00   0.924
  4715                      15.00       0.00       0.00       1.21       3.75      10.11      13.86        0.01     0.00   0.924
  4716                      15.00       0.00       0.00       1.21       3.75      10.11      13.86        0.01     0.00   0.924
  4717                      15.00       0.00       0.00       1.21       3.75      10.11      13.86        0.01     0.00   0.924
  4718                      15.00       0.00       0.00       1.21       3.75      10.11      13.86        0.01     0.00   0.924
  4722                      15.00       0.00       0.00       1.21       3.75      10.11      13.86        0.01     0.00   0.924
  4760                      15.00       0.00       0.00       1.21       3.75      10.11      13.86        0.01     0.00   0.924
  4761                      15.00       0.00       0.00       1.21       3.75      10.11      13.86        0.01     0.00   0.924
  4765                      15.00       0.00       0.00       1.21       3.75      10.11      13.86        0.01     0.00   0.924
  4766                      15.00       0.00       0.00       1.21       3.75      10.11      13.86        0.01     0.00   0.924
  4767                      15.00       0.00       0.00       1.21       3.75      10.11      13.86        0.01     0.00   0.924
  4768                      15.00       0.00       0.00       1.21       3.75      10.11      13.86        0.01     0.00   0.924
  4769                      15.00       0.00       0.00       1.21       3.75      10.11      13.86        0.01     0.00   0.924
  4855                      15.00       0.00       0.00       1.21       3.75      10.11      13.86        0.01     0.00   0.924
  4856                      15.00       0.00       0.00       1.21       3.75      10.11      13.86        0.01     0.00   0.924
  5284                      15.00       0.00       0.00       1.21       3.75      10.11      13.86        0.01     0.00   0.924
  5285                      15.00       0.00       0.00       1.21       3.75      10.11      13.86        0.01     0.00   0.924
  5286                      15.00       0.00       0.00       1.21       3.75      10.11      13.86        0.01     0.00   0.924
  5287                      15.00       0.00       0.00       1.21       3.75      10.11      13.86        0.01     0.00   0.924
  5288                      15.00       0.00       0.00       1.21       3.75      10.11      13.86        0.01     0.00   0.924
  5289                      15.00       0.00       0.00       1.21       3.75      10.11      13.86        0.01     0.00   0.924
  5290                      15.00       0.00       0.00       1.21       3.75      10.11      13.86        0.01     0.00   0.924
  5291                      15.00       0.00       0.00       1.21       3.75      10.11      13.86        0.01     0.00   0.924
  5292                      15.00       0.00       0.00       1.21       3.75      10.11      13.86        0.01     0.00   0.924
  5293                      15.00       0.00       0.00       1.21       3.75      10.11      13.86        0.01     0.00   0.924
  5294                      15.00       0.00       0.00       1.21       3.75      10.11      13.86        0.01     0.00   0.924
  5295                      15.00       0.00       0.00       1.21       3.75      10.11      13.86        0.01     0.00   0.924
  5296                      15.00       0.00       0.00       1.21       3.75      10.11      13.86        0.01     0.00   0.924
  5297                      15.00       0.00       0.00       1.21       3.75      10.11      13.86        0.01     0.00   0.924
  5298                      15.00       0.00       0.00       1.21       3.75      10.11      13.86        0.01     0.00   0.924
  5299                      15.00       0.00       0.00       1.21       3.75      10.11      13.86        0.01     0.00   0.924
  5300                      15.00       0.00       0.00       1.21       3.75      10.11      13.86        0.01     0.00   0.924
  5301                      15.00       0.00       0.00       1.21       3.75      10.11      13.86        0.01     0.00   0.924
  5302                      15.00       0.00       0.00       1.21       3.75      10.11      13.86        0.01     0.00   0.924
  5303                      15.00       0.00       0.00       1.21       3.75      10.11      13.86        0.01     0.00   0.924
  5304                      15.00       0.00       0.00       1.21       3.75      10.11      13.86        0.01     0.00   0.924
  5305                      15.00       0.00       0.00       1.21       3.75      10.11      13.86        0.01     0.00   0.924
  5306                      15.00       0.00       0.00       1.21       3.75      10.11      13.86        0.01     0.00   0.924
  5307                      15.00       0.00       0.00       1.21       3.75      10.11      13.86        0.01     0.00   0.924
  5308                      15.00       0.00       0.00       1.21       3.75      10.11      13.86        0.01     0.00   0.924
  5309                      15.00       0.00       0.00       1.21       3.75      10.11      13.86        0.01     0.00   0.924
  5310                      15.00       0.00       0.00       1.21       3.75      10.11      13.86        0.01     0.00   0.924
  5311                      15.00       0.00       0.00       1.21       3.75      10.11      13.86        0.01     0.00   0.924
  5312                      15.00       0.00       0.00       1.21       3.75      10.11      13.86        0.01     0.00   0.924
  5313                      15.00       0.00       0.00       1.21       3.75      10.11      13.86        0.01     0.00   0.924
  5314                      15.00       0.00       0.00       1.21       3.75      10.11      13.86        0.01     0.00   0.924
  5315                      15.00       0.00       0.00       1.21       3.75      10.11      13.86        0.01     0.00   0.924
  5316                      15.00       0.00       0.00       1.21       3.75      10.11      13.86        0.01     0.00   0.924
  5317                      15.00       0.00       0.00       1.21       3.75      10.11      13.86        0.01     0.00   0.924
  5318                      15.00       0.00       0.00       1.21       3.75      10.11      13.86        0.01     0.00   0.924
  5319                      15.00       0.00       0.00       1.21       3.75      10.11      13.86        0.01     0.00   0.924
  5320                      15.00       0.00       0.00       1.21       3.75      10.11      13.86        0.01     0.00   0.924
  5321                      15.00       0.00       0.00       1.21       3.75      10.11      13.86        0.01     0.00   0.924
  5322                      15.00       0.00       0.00       1.21       3.75      10.11      13.86        0.01     0.00   0.924
  5323                      15.00       0.00       0.00       1.21       3.75      10.11      13.86        0.01     0.00   0.924
  5324                      15.00       0.00       0.00       1.21       3.75      10.11      13.86        0.01     0.00   0.924
  5325                      15.00       0.00       0.00       1.21       3.75      10.11      13.86        0.01     0.00   0.924
  5326                      15.00       0.00       0.00       1.21       3.75      10.11      13.86        0.01     0.00   0.924
  5327                      15.00       0.00       0.00       1.21       3.75      10.11      13.86        0.01     0.00   0.924
  5328                      15.00       0.00       0.00       1.21       3.75      10.11      13.86        0.01     0.00   0.924
  5329                      15.00       0.00       0.00       1.21       3.75      10.11      13.86        0.01     0.00   0.924
  5330                      15.00       0.00       0.00       1.21       3.75      10.11      13.86        0.01     0.00   0.924
  5333                      15.00       0.00       0.00       1.21       3.75      10.11      13.86        0.01     0.00   0.924
  5334                      15.00       0.00       0.00       1.21       3.75      10.11      13.86        0.01     0.00   0.924
  6040                      15.00       0.00       0.00       1.21       3.75      10.11      13.86        0.01     0.00   0.924
  6041                      15.00       0.00       0.00       1.21       3.75      10.11      13.86        0.01     0.00   0.924
  6162                      15.00       0.00       0.00       1.21       3.75      10.11      13.86        0.01     0.00   0.924
  7207                      15.00       0.00       0.00       1.21       3.75      10.11      13.86        0.01     0.00   0.924
  7208                      15.00       0.00       0.00       1.21       3.75      10.11      13.86        0.01     0.00   0.924
  7213                      15.00       0.00       0.00       1.21       3.75      10.11      13.86        0.01     0.00   0.924
  7214                      15.00       0.00       0.00       1.21       3.75      10.11      13.86        0.01     0.00   0.924
  7219                      15.00       0.00       0.00       1.21       3.75      10.11      13.86        0.01     0.00   0.924
  7220                      15.00       0.00       0.00       1.21       3.75      10.11      13.86        0.01     0.00   0.924
  7221                      15.00       0.00       0.00       1.21       3.75      10.11      13.86        0.01     0.00   0.924
  7225                      15.00       0.00       0.00       1.21       3.75      10.11      13.86        0.01     0.00   0.924
  7229                      15.00       0.00       0.00       1.21       3.75      10.11      13.86        0.01     0.00   0.924
  7231                      15.00       0.00       0.00       1.21       3.75      10.11      13.86        0.01     0.00   0.924
  7268                      15.00       0.00       0.00       1.21       3.75      10.11      13.86        0.01     0.00   0.924
  7269                      15.00       0.00       0.00       1.21       3.75      10.11      13.86        0.01     0.00   0.924
  7271                      15.00       0.00       0.00       1.21       3.75      10.11      13.86        0.01     0.00   0.924
  7272                      15.00       0.00       0.00       1.21       3.75      10.11      13.86        0.01     0.00   0.924
  7273                      15.00       0.00       0.00       1.21       3.75      10.11      13.86        0.01     0.00   0.924
  7433                      15.00       0.00       0.00       1.21       3.75      10.11      13.86        0.01     0.00   0.924
  7434                      15.00       0.00       0.00       1.21       3.75      10.11      13.86        0.01     0.00   0.924
  7544                      15.00       0.00       0.00       1.21       3.75      10.11      13.86        0.01     0.00   0.924
  7545                      15.00       0.00       0.00       1.21       3.75      10.11      13.86        0.01     0.00   0.924
  8737                      15.00       0.00       0.00       1.21       3.75      10.11      13.86        0.01     0.00   0.924
  8818                      15.00       0.00       0.00       1.21       3.75      10.11      13.86        0.01     0.00   0.924
  9942                      15.00       0.00       0.00       1.21       3.75      10.11      13.86        0.01     0.00   0.924
  9957                      15.00       0.00       0.00       1.21       3.75      10.11      13.86        0.01     0.00   0.924
  4399                      15.00       0.00       0.00       1.13       3.75      10.21      13.96        0.00     0.00   0.930
  4400                      15.00       0.00       0.00       1.13       3.75      10.21      13.96        0.00     0.00   0.930
  4401                      15.00       0.00       0.00       1.13       3.75      10.21      13.96        0.00     0.00   0.930
  4402                      15.00       0.00       0.00       1.13       3.75      10.21      13.96        0.00     0.00   0.930
  4403                      15.00       0.00       0.00       1.13       3.75      10.21      13.96        0.00     0.00   0.930
  4404                      15.00       0.00       0.00       1.13       3.75      10.21      13.96        0.00     0.00   0.930
  4405                      15.00       0.00       0.00       1.13       3.75      10.21      13.96        0.00     0.00   0.930
  4406                      15.00       0.00       0.00       1.13       3.75      10.21      13.96        0.00     0.00   0.930
  4407                      15.00       0.00       0.00       1.13       3.75      10.21      13.96        0.00     0.00   0.930
  4408                      15.00       0.00       0.00       1.13       3.75      10.21      13.96        0.00     0.00   0.930
  4409                      15.00       0.00       0.00       1.13       3.75      10.21      13.96        0.00     0.00   0.930
  4410                      15.00       0.00       0.00       1.13       3.75      10.21      13.96        0.00     0.00   0.930
  4411                      15.00       0.00       0.00       1.13       3.75      10.21      13.96        0.00     0.00   0.930
  4412                      15.00       0.00       0.00       1.13       3.75      10.21      13.96        0.00     0.00   0.930
  4423                      15.00       0.00       0.00       1.13       3.75      10.21      13.96        0.00     0.00   0.930
  4424                      15.00       0.00       0.00       1.13       3.75      10.21      13.96        0.00     0.00   0.930
  4425                      15.00       0.00       0.00       1.13       3.75      10.21      13.96        0.00     0.00   0.930
  4426                      15.00       0.00       0.00       1.13       3.75      10.21      13.96        0.00     0.00   0.930
  4427                      15.00       0.00       0.00       1.13       3.75      10.21      13.96        0.00     0.00   0.930
  4428                      15.00       0.00       0.00       1.13       3.75      10.21      13.96        0.00     0.00   0.930
  4455                      15.00       0.00       0.00       1.13       3.75      10.21      13.96        0.00     0.00   0.930
  4456                      15.00       0.00       0.00       1.13       3.75      10.21      13.96        0.00     0.00   0.930
  4457                      15.00       0.00       0.00       1.13       3.75      10.21      13.96        0.00     0.00   0.930
  4458                      15.00       0.00       0.00       1.13       3.75      10.21      13.96        0.00     0.00   0.930
  4459                      15.00       0.00       0.00       1.13       3.75      10.21      13.96        0.00     0.00   0.930
  4460                      15.00       0.00       0.00       1.13       3.75      10.21      13.96        0.00     0.00   0.930
  4461                      15.00       0.00       0.00       1.13       3.75      10.21      13.96        0.00     0.00   0.930
  4464                      15.00       0.00       0.00       1.13       3.75      10.21      13.96        0.00     0.00   0.930
  4465                      15.00       0.00       0.00       1.13       3.75      10.21      13.96        0.00     0.00   0.930
  4466                      15.00       0.00       0.00       1.13       3.75      10.21      13.96        0.00     0.00   0.930
  4467                      15.00       0.00       0.00       1.13       3.75      10.21      13.96        0.00     0.00   0.930
  4468                      15.00       0.00       0.00       1.13       3.75      10.21      13.96        0.00     0.00   0.930
  4469                      15.00       0.00       0.00       1.13       3.75      10.21      13.96        0.00     0.00   0.930
  4470                      15.00       0.00       0.00       1.13       3.75      10.21      13.96        0.00     0.00   0.930
  4471                      15.00       0.00       0.00       1.13       3.75      10.21      13.96        0.00     0.00   0.930
  4472                      15.00       0.00       0.00       1.13       3.75      10.21      13.96        0.00     0.00   0.930
  4473                      15.00       0.00       0.00       1.13       3.75      10.21      13.96        0.00     0.00   0.930
  4474                      15.00       0.00       0.00       1.13       3.75      10.21      13.96        0.00     0.00   0.930
  4628                      15.00       0.00       0.00       1.13       3.75      10.21      13.96        0.00     0.00   0.930
  4631                      15.00       0.00       0.00       1.13       3.75      10.21      13.96        0.00     0.00   0.930
  4632                      15.00       0.00       0.00       1.13       3.75      10.21      13.96        0.00     0.00   0.930
  4633                      15.00       0.00       0.00       1.13       3.75      10.21      13.96        0.00     0.00   0.930
  4634                      15.00       0.00       0.00       1.13       3.75      10.21      13.96        0.00     0.00   0.930
  4637                      15.00       0.00       0.00       1.13       3.75      10.21      13.96        0.00     0.00   0.930
  4686                      15.00       0.00       0.00       1.13       3.75      10.21      13.96        0.00     0.00   0.930
  4687                      15.00       0.00       0.00       1.13       3.75      10.21      13.96        0.00     0.00   0.930
  4688                      15.00       0.00       0.00       1.13       3.75      10.21      13.96        0.00     0.00   0.930
  5032                      15.00       0.00       0.00       1.13       3.75      10.21      13.96        0.00     0.00   0.930
  5331                      15.00       0.00       0.00       1.13       3.75      10.21      13.96        0.00     0.00   0.930
  5332                      15.00       0.00       0.00       1.13       3.75      10.21      13.96        0.00     0.00   0.930
  5335                      15.00       0.00       0.00       1.13       3.75      10.21      13.96        0.00     0.00   0.930
  5336                      15.00       0.00       0.00       1.13       3.75      10.21      13.96        0.00     0.00   0.930
  5337                      15.00       0.00       0.00       1.13       3.75      10.21      13.96        0.00     0.00   0.930
  5338                      15.00       0.00       0.00       1.13       3.75      10.21      13.96        0.00     0.00   0.930
  5339                      15.00       0.00       0.00       1.13       3.75      10.21      13.96        0.00     0.00   0.930
  5340                      15.00       0.00       0.00       1.13       3.75      10.21      13.96        0.00     0.00   0.930
  5341                      15.00       0.00       0.00       1.13       3.75      10.21      13.96        0.00     0.00   0.930
  5342                      15.00       0.00       0.00       1.13       3.75      10.21      13.96        0.00     0.00   0.930
  5343                      15.00       0.00       0.00       1.13       3.75      10.21      13.96        0.00     0.00   0.930
  5344                      15.00       0.00       0.00       1.13       3.75      10.21      13.96        0.00     0.00   0.930
  5345                      15.00       0.00       0.00       1.13       3.75      10.21      13.96        0.00     0.00   0.930
  5346                      15.00       0.00       0.00       1.13       3.75      10.21      13.96        0.00     0.00   0.930
  5347                      15.00       0.00       0.00       1.13       3.75      10.21      13.96        0.00     0.00   0.930
  5348                      15.00       0.00       0.00       1.13       3.75      10.21      13.96        0.00     0.00   0.930
  5349                      15.00       0.00       0.00       1.13       3.75      10.21      13.96        0.00     0.00   0.930
  5350                      15.00       0.00       0.00       1.13       3.75      10.21      13.96        0.00     0.00   0.930
  6088                      15.00       0.00       0.00       1.13       3.75      10.21      13.96        0.00     0.00   0.930
  7275                      15.00       0.00       0.00       1.13       3.75      10.21      13.96        0.00     0.00   0.930
  9955                      15.00       0.00       0.00       1.13       3.75      10.21      13.96        0.00     0.00   0.930
  9956                      15.00       0.00       0.00       1.13       3.75      10.21      13.96        0.00     0.00   0.930
  
  
  ****************************
  Subcatchment Washoff Summary
  ****************************
  
  ----------------------------------
                                 COD
  Subcatchment                    kg
  ----------------------------------
  2707                         3.646
  2708                         3.646
  2709                         3.646
  2710                         3.646
  2712                         3.646
  2713                         3.646
  2714                         3.646
  2715                         3.646
  2716                         3.646
  2717                         3.646
  2718                         3.646
  2719                         3.646
  2721                         3.646
  2722                         3.646
  2723                         3.646
  2724                         3.646
  2725                         3.646
  2726                         3.646
  2727                         3.646
  2728                         3.646
  2729                         3.646
  2730                         3.646
  2731                         3.646
  2732                         3.646
  2733                         3.646
  2734                         3.646
  2735                         3.646
  2736                         3.646
  2737                         3.646
  2738                         3.646
  2739                         3.646
  2740                         3.646
  2741                         3.646
  2742                         3.646
  2743                         3.646
  2744                         3.646
  2745                         3.646
  2746                         3.646
  2747                         3.646
  2748                         3.646
  2749                         3.646
  2750                         3.646
  2751                         3.646
  2752                         3.646
  2753                         3.646
  2754                         3.646
  2755                         3.646
  2756                         3.646
  2964                         3.646
  2969                         3.646
  2970                         3.646
  2974                         3.646
  2975                         3.646
  2976                         3.646
  2977                         3.646
  2978                         3.646
  2979                         3.646
  2980                         3.646
  2981                         3.646
  2982                         3.646
  2984                         3.646
  2985                         3.646
  3925                         3.646
  3926                         3.646
  3927                         3.646
  3928                         3.646
  3929                         3.646
  3930                         3.646
  3931                         3.646
  3932                         3.646
  3933                         3.646
  3934                         3.646
  3935                         3.646
  3936                         3.646
  3937                         3.646
  3938                         3.646
  3939                         3.646
  3940                         3.646
  3941                         3.646
  3942                         3.646
  3943                         3.646
  3944                         3.646
  3945                         3.646
  3946                         3.646
  3947                         3.646
  3948                         3.646
  3949                         3.646
  3950                         3.646
  3951                         3.646
  3952                         3.646
  3953                         3.646
  3954                         3.646
  3955                         3.646
  3956                         3.646
  4032                         3.646
  4033                         3.646
  4041                         3.646
  4051                         3.646
  4055                         3.646
  4056                         3.646
  4058                         3.646
  4385                         3.646
  4386                         3.646
  4387                         3.646
  4388                         3.646
  4389                         3.646
  4390                         3.646
  4391                         3.646
  4392                         3.646
  4393                         3.646
  4394                         3.646
  4395                         3.646
  4396                         3.646
  4397                         3.646
  4398                         3.646
  4429                         3.646
  4430                         3.646
  4431                         3.646
  4432                         3.646
  4433                         3.646
  4434                         3.646
  4435                         3.646
  4436                         3.646
  4437                         3.646
  4438                         3.646
  4439                         3.646
  4440                         3.646
  4441                         3.646
  4442                         3.646
  4443                         3.646
  4444                         3.646
  4445                         3.646
  4446                         3.646
  4447                         3.646
  4448                         3.646
  4449                         3.646
  4450                         3.646
  4451                         3.646
  4452                         3.646
  4453                         3.646
  4454                         3.646
  4462                         3.646
  4463                         3.646
  4563                         3.646
  4564                         3.646
  4565                         3.646
  4566                         3.646
  4567                         3.646
  4568                         3.646
  4569                         3.646
  4570                         3.646
  4571                         3.646
  4572                         3.646
  4573                         3.646
  4574                         3.646
  4575                         3.646
  4576                         3.646
  4577                         3.646
  4578                         3.646
  4579                         3.646
  4580                         3.646
  4581                         3.646
  4624                         3.646
  4625                         3.646
  4644                         3.646
  4645                         3.646
  4646                         3.646
  4679                         3.646
  4680                         3.646
  4681                         3.646
  4682                         3.646
  4683                         3.646
  4711                         3.646
  4712                         3.646
  4713                         3.646
  4714                         3.646
  4715                         3.646
  4716                         3.646
  4717                         3.646
  4718                         3.646
  4722                         3.646
  4760                         3.646
  4761                         3.646
  4765                         3.646
  4766                         3.646
  4767                         3.646
  4768                         3.646
  4769                         3.646
  4855                         3.646
  4856                         3.646
  5284                         3.646
  5285                         3.646
  5286                         3.646
  5287                         3.646
  5288                         3.646
  5289                         3.646
  5290                         3.646
  5291                         3.646
  5292                         3.646
  5293                         3.646
  5294                         3.646
  5295                         3.646
  5296                         3.646
  5297                         3.646
  5298                         3.646
  5299                         3.646
  5300                         3.646
  5301                         3.646
  5302                         3.646
  5303                         3.646
  5304                         3.646
  5305                         3.646
  5306                         3.646
  5307                         3.646
  5308                         3.646
  5309                         3.646
  5310                         3.646
  5311                         3.646
  5312                         3.646
  5313                         3.646
  5314                         3.646
  5315                         3.646
  5316                         3.646
  5317                         3.646
  5318                         3.646
  5319                         3.646
  5320                         3.646
  5321                         3.646
  5322                         3.646
  5323                         3.646
  5324                         3.646
  5325                         3.646
  5326                         3.646
  5327                         3.646
  5328                         3.646
  5329                         3.646
  5330                         3.646
  5333                         3.646
  5334                         3.646
  6040                         3.646
  6041                         3.646
  6162                         3.646
  7207                         3.646
  7208                         3.646
  7213                         3.646
  7214                         3.646
  7219                         3.646
  7220                         3.646
  7221                         3.646
  7225                         3.646
  7229                         3.646
  7231                         3.646
  7268                         3.646
  7269                         3.646
  7271                         3.646
  7272                         3.646
  7273                         3.646
  7433                         3.646
  7434                         3.646
  7544                         3.646
  7545                         3.646
  8737                         3.646
  8818                         3.646
  9942                         3.646
  9957                         3.646
  4399                         1.101
  4400                         1.101
  4401                         1.101
  4402                         1.101
  4403                         1.101
  4404                         1.101
  4405                         1.101
  4406                         1.101
  4407                         1.101
  4408                         1.101
  4409                         1.101
  4410                         1.101
  4411                         1.101
  4412                         1.101
  4423                         1.101
  4424                         1.101
  4425                         1.101
  4426                         1.101
  4427                         1.101
  4428                         1.101
  4455                         1.101
  4456                         1.101
  4457                         1.101
  4458                         1.101
  4459                         1.101
  4460                         1.101
  4461                         1.101
  4464                         1.101
  4465                         1.101
  4466                         1.101
  4467                         1.101
  4468                         1.101
  4469                         1.101
  4470                         1.101
  4471                         1.101
  4472                         1.101
  4473                         1.101
  4474                         1.101
  4628                         1.101
  4631                         1.101
  4632                         1.101
  4633                         1.101
  4634                         1.101
  4637                         1.101
  4686                         1.101
  4687                         1.101
  4688                         1.101
  5032                         1.101
  5331                         1.101
  5332                         1.101
  5335                         1.101
  5336                         1.101
  5337                         1.101
  5338                         1.101
  5339                         1.101
  5340                         1.101
  5341                         1.101
  5342                         1.101
  5343                         1.101
  5344                         1.101
  5345                         1.101
  5346                         1.101
  5347                         1.101
  5348                         1.101
  5349                         1.101
  5350                         1.101
  6088                         1.101
  7275                         1.101
  9955                         1.101
  9956                         1.101
  ----------------------------------
  System                    1043.384
  
  
  ******************
  Node Depth Summary
  ******************
  
  ---------------------------------------------------------------------------------
                                 Average  Maximum  Maximum  Time of Max    Reported
                                   Depth    Depth      HGL   Occurrence   Max Depth
  Node                 Type       Meters   Meters   Meters  days hr:min      Meters
  ---------------------------------------------------------------------------------
<<<<<<< HEAD
  Node_02706           JUNCTION     1.58     1.68    98.52     0  03:51        0.00
=======
<<<<<<< HEAD
  Node_02706           JUNCTION     1.58     1.68    98.52     0  03:53        0.00
=======
  Node_02706           JUNCTION     1.58     1.69    98.53     0  04:03        0.00
>>>>>>> b040755ab93617f94f1ab7a7036927f36e763e5a
>>>>>>> ebd46bdc835ac17077bb70c3b6f6db3a4ee81ecd
  Node_02707           JUNCTION     0.21     0.24    99.67     0  02:58        0.00
  Node_02708           JUNCTION     0.35     0.38   100.14     0  04:00        0.00
  Node_02709           JUNCTION     0.41     0.43   100.07     0  04:00        0.00
  Node_02711           JUNCTION     0.04     0.11   100.02     0  04:00        0.00
  Node_02712           JUNCTION     0.04     0.11   100.01     0  04:00        0.00
  Node_02713           JUNCTION     0.08     0.15   100.00     0  04:00        0.00
  Node_02714           JUNCTION     0.01     0.03   100.42     0  04:00        0.00
  Node_02715           JUNCTION     0.05     0.12    99.93     0  04:00        0.00
  Node_02716           JUNCTION     0.05     0.13    99.85     0  04:01        0.00
  Node_02717           JUNCTION     0.08     0.17    99.81     0  04:00        0.00
  Node_02718           JUNCTION     0.06     0.15    99.75     0  04:01        0.00
  Node_02720           JUNCTION     0.06     0.16    99.72     0  04:01        0.00
  Node_02721           JUNCTION     0.33     0.44    99.68     0  04:00        0.00
  Node_02722           JUNCTION     0.12     0.15   101.95     0  04:00        0.00
  Node_02723           JUNCTION     0.25     0.36    99.65     0  04:00        0.00
  Node_02724           JUNCTION     0.08     0.19    99.61     0  04:00        0.00
  Node_02725           JUNCTION     0.08     0.19    99.56     0  04:01        0.00
  Node_02726           JUNCTION     0.12     0.22    99.48     0  04:02        0.00
  Node_02727           JUNCTION     0.17     0.31    99.44     0  04:03        0.00
  Node_02728           JUNCTION     0.05     0.06   100.14     0  04:00        0.00
  Node_02729           JUNCTION     0.19     0.36    99.42     0  04:02        0.00
<<<<<<< HEAD
  Node_02730           JUNCTION     0.19     0.37    99.39     0  04:02        0.00
  Node_02731           JUNCTION     0.59     0.79    99.38     0  04:01        0.00
  Node_02732           JUNCTION     0.15     0.35    99.37     0  04:01        0.00
  Node_02733           JUNCTION     0.14     0.34    99.35     0  04:01        0.00
=======
  Node_02730           JUNCTION     0.19     0.37    99.39     0  04:01        0.00
<<<<<<< HEAD
  Node_02731           JUNCTION     0.59     0.79    99.38     0  04:01        0.00
  Node_02732           JUNCTION     0.15     0.35    99.37     0  04:01        0.00
=======
  Node_02731           JUNCTION     0.59     0.79    99.38     0  04:00        0.00
  Node_02732           JUNCTION     0.15     0.35    99.37     0  04:00        0.00
>>>>>>> b040755ab93617f94f1ab7a7036927f36e763e5a
  Node_02733           JUNCTION     0.14     0.34    99.35     0  04:00        0.00
>>>>>>> ebd46bdc835ac17077bb70c3b6f6db3a4ee81ecd
  Node_02734           JUNCTION     0.42     0.63    99.34     0  04:00        0.00
  Node_02735           JUNCTION     0.32     0.53    99.34     0  04:00        0.00
  Node_02736           JUNCTION     0.50     0.71    99.32     0  04:00        0.00
  Node_02737           JUNCTION     0.48     0.69    99.31     0  04:00        0.00
  Node_02738           JUNCTION     0.30     0.51    99.28     0  04:00        0.00
  Node_02739           JUNCTION     0.16     0.38    99.25     0  04:00        0.00
  Node_02740           JUNCTION     0.17     0.39    99.23     0  04:00        0.00
  Node_02741           JUNCTION     0.05     0.07    99.37     0  04:00        0.00
  Node_02742           JUNCTION     0.17     0.40    99.20     0  04:00        0.00
  Node_02743           JUNCTION     0.59     0.80    99.17     0  04:00        0.00
  Node_02744           JUNCTION     0.06     0.08    99.42     0  00:00        0.00
  Node_02745           JUNCTION     0.31     0.53    99.15     0  04:00        0.00
  Node_02746           JUNCTION     0.20     0.42    99.11     0  04:00        0.00
  Node_02747           JUNCTION     0.04     0.07   100.42     0  04:00        0.00
  Node_02748           JUNCTION     0.03     0.04   100.49     0  04:00        0.00
  Node_02749           JUNCTION     0.21     0.42    99.06     0  04:00        0.00
  Node_02750           JUNCTION     0.22     0.41    99.02     0  04:01        0.00
  Node_02751           JUNCTION     0.18     0.37    98.96     0  04:01        0.00
<<<<<<< HEAD
  Node_02752           JUNCTION     0.17     0.35    98.89     0  04:01        0.00
  Node_02753           JUNCTION     0.18     0.34    98.81     0  04:02        0.00
  Node_02754           JUNCTION     0.10     0.20    98.52     0  03:50        0.00
  Node_02755           JUNCTION     1.02     1.13    98.52     0  03:51        0.00
  Node_02963           JUNCTION     0.05     0.08    99.99     0  04:00        0.00
  Node_02968           JUNCTION     0.06     0.08   100.20     0  04:00        0.00
  Node_02969           JUNCTION     0.07     0.10    99.98     0  00:00        0.00
  Node_02973           JUNCTION     0.59     0.64    98.53     0  03:52        0.00
  Node_02974           JUNCTION     0.38     0.80    97.93     0  04:06        0.00
  Node_02975           JUNCTION     0.39     0.82    97.95     0  03:58        0.00
  Node_02976           JUNCTION     0.41     0.97    98.16     0  03:59        0.00
  Node_02977           JUNCTION     0.39     1.16    98.49     0  03:58        0.00
  Node_02978           JUNCTION     0.36     1.10    98.63     0  03:58        0.00
  Node_02979           JUNCTION     0.34     0.67    97.78     0  03:58        0.00
  Node_02980           JUNCTION     0.26     0.52    97.60     0  04:00        0.00
  Node_02981           JUNCTION     0.22     0.43    97.38     0  04:00        0.00
  Node_02983           JUNCTION     0.04     0.05   100.17     0  00:00        0.00
  Node_02984           JUNCTION     0.73     1.46    98.44     0  03:58        0.00
=======
<<<<<<< HEAD
  Node_02752           JUNCTION     0.17     0.35    98.89     0  04:01        0.00
  Node_02753           JUNCTION     0.18     0.34    98.81     0  04:02        0.00
  Node_02754           JUNCTION     0.10     0.21    98.52     0  03:52        0.00
  Node_02755           JUNCTION     1.02     1.13    98.52     0  03:52        0.00
  Node_02963           JUNCTION     0.05     0.08    99.99     0  04:00        0.00
  Node_02968           JUNCTION     0.06     0.08   100.20     0  04:00        0.00
  Node_02969           JUNCTION     0.07     0.10    99.98     0  00:00        0.00
  Node_02973           JUNCTION     0.59     0.64    98.53     0  03:53        0.00
  Node_02974           JUNCTION     0.39     0.82    97.95     0  04:07        0.00
  Node_02975           JUNCTION     0.39     0.84    97.97     0  04:06        0.00
  Node_02976           JUNCTION     0.41     1.00    98.19     0  04:06        0.00
  Node_02977           JUNCTION     0.40     1.20    98.53     0  04:06        0.00
  Node_02978           JUNCTION     0.36     1.15    98.68     0  04:07        0.00
  Node_02979           JUNCTION     0.34     0.68    97.80     0  04:07        0.00
  Node_02980           JUNCTION     0.26     0.52    97.61     0  04:06        0.00
  Node_02981           JUNCTION     0.22     0.43    97.38     0  04:06        0.00
  Node_02983           JUNCTION     0.04     0.05   100.17     0  00:00        0.00
  Node_02984           JUNCTION     0.73     1.49    98.47     0  04:06        0.00
=======
  Node_02752           JUNCTION     0.17     0.35    98.89     0  04:02        0.00
  Node_02753           JUNCTION     0.18     0.34    98.81     0  04:02        0.00
  Node_02754           JUNCTION     0.10     0.21    98.52     0  04:02        0.00
  Node_02755           JUNCTION     1.02     1.13    98.52     0  04:02        0.00
  Node_02963           JUNCTION     0.05     0.08    99.99     0  04:00        0.00
  Node_02968           JUNCTION     0.06     0.08   100.20     0  04:00        0.00
  Node_02969           JUNCTION     0.07     0.10    99.98     0  00:00        0.00
  Node_02973           JUNCTION     0.59     0.64    98.53     0  04:02        0.00
  Node_02974           JUNCTION     0.39     0.79    97.92     0  03:59        0.00
  Node_02975           JUNCTION     0.39     0.80    97.94     0  03:59        0.00
  Node_02976           JUNCTION     0.41     0.95    98.14     0  04:02        0.00
  Node_02977           JUNCTION     0.39     1.12    98.46     0  03:58        0.00
  Node_02978           JUNCTION     0.35     1.07    98.60     0  03:58        0.00
  Node_02979           JUNCTION     0.34     0.66    97.78     0  03:55        0.00
  Node_02980           JUNCTION     0.26     0.51    97.59     0  04:00        0.00
  Node_02981           JUNCTION     0.22     0.42    97.37     0  04:00        0.00
  Node_02983           JUNCTION     0.04     0.05   100.17     0  00:00        0.00
  Node_02984           JUNCTION     0.73     1.43    98.41     0  04:01        0.00
>>>>>>> b040755ab93617f94f1ab7a7036927f36e763e5a
>>>>>>> ebd46bdc835ac17077bb70c3b6f6db3a4ee81ecd
  Node_03924           JUNCTION     0.01     0.03   100.85     0  04:00        0.00
  Node_03925           JUNCTION     0.23     0.28   100.65     0  04:00        0.00
  Node_03926           JUNCTION     0.01     0.02   101.49     0  04:00        0.00
  Node_03927           JUNCTION     0.20     0.26   100.64     0  04:00        0.00
  Node_03928           JUNCTION     0.22     0.28   100.63     0  04:00        0.00
  Node_03929           JUNCTION     0.21     0.29   100.59     0  04:00        0.00
  Node_03930           JUNCTION     0.23     0.31   100.56     0  04:00        0.00
  Node_03931           JUNCTION     0.21     0.29   100.54     0  04:00        0.00
  Node_03932           JUNCTION     0.23     0.32   100.49     0  04:00        0.00
  Node_03933           JUNCTION     0.22     0.30   100.42     0  04:00        0.00
  Node_03934           JUNCTION     0.05     0.07   100.93     0  04:00        0.00
  Node_03935           JUNCTION     0.25     0.41   100.38     0  04:00        0.00
  Node_03936           JUNCTION     0.27     0.44   100.37     0  04:00        0.00
  Node_03937           JUNCTION     1.21     1.22   101.38     0  04:00        0.00
  Node_03938           JUNCTION     0.67     3.04   102.23     0  03:26        0.00
  Node_03939           JUNCTION     0.74     3.19   102.23     0  03:26        0.00
<<<<<<< HEAD
  Node_03940           JUNCTION     0.78     3.30   102.22     0  03:26        0.00
  Node_03941           JUNCTION     0.84     3.40   102.21     0  03:26        0.00
  Node_03942           JUNCTION     0.86     3.46   102.21     0  03:26        0.00
  Node_03943           JUNCTION     0.91     3.58   102.19     0  03:26        0.00
  Node_03944           JUNCTION     0.99     3.69   102.17     0  03:26        0.00
  Node_03945           JUNCTION     1.03     3.75   102.17     0  03:42        0.00
  Node_03946           JUNCTION     1.09     3.80   102.16     0  03:42        0.00
  Node_03947           JUNCTION     1.26     3.91   101.80     0  03:37        0.00
  Node_03948           JUNCTION     1.19     3.73   101.58     0  03:50        0.00
  Node_03949           JUNCTION     1.27     3.73   101.43     0  03:35        0.00
  Node_03950           JUNCTION     1.12     3.49   101.26     0  03:47        0.00
  Node_03951           JUNCTION     1.07     3.29   100.98     0  03:41        0.00
  Node_03952           JUNCTION     1.05     3.09   100.68     0  03:41        0.00
  Node_03953           JUNCTION     0.93     2.75   100.32     0  03:50        0.00
  Node_03954           JUNCTION     1.79     3.37    99.95     0  03:37        0.00
  Node_03955           JUNCTION     0.71     2.06    99.55     0  03:36        0.00
  Node_04031           JUNCTION     0.15     0.76   101.99     0  03:41        0.00
  Node_04032           JUNCTION     0.99     3.64   101.99     0  03:47        0.00
=======
  Node_03940           JUNCTION     0.78     3.29   102.22     0  03:26        0.00
<<<<<<< HEAD
  Node_03941           JUNCTION     0.84     3.41   102.22     0  03:26        0.00
  Node_03942           JUNCTION     0.86     3.45   102.20     0  04:02        0.00
  Node_03943           JUNCTION     0.92     3.58   102.19     0  03:26        0.00
  Node_03944           JUNCTION     0.99     3.69   102.17     0  03:26        0.00
  Node_03945           JUNCTION     1.03     3.75   102.17     0  03:37        0.00
  Node_03946           JUNCTION     1.09     3.79   102.15     0  04:04        0.00
  Node_03947           JUNCTION     1.26     3.92   101.81     0  04:02        0.00
  Node_03948           JUNCTION     1.19     3.73   101.58     0  03:36        0.00
  Node_03949           JUNCTION     1.28     3.73   101.43     0  03:52        0.00
  Node_03950           JUNCTION     1.12     3.49   101.26     0  03:53        0.00
  Node_03951           JUNCTION     1.08     3.30   100.99     0  03:43        0.00
  Node_03952           JUNCTION     1.05     3.09   100.68     0  03:46        0.00
  Node_03953           JUNCTION     0.93     2.75   100.32     0  03:59        0.00
  Node_03954           JUNCTION     1.79     3.37    99.95     0  04:08        0.00
  Node_03955           JUNCTION     0.71     2.06    99.55     0  04:07        0.00
  Node_04031           JUNCTION     0.15     0.77   102.00     0  04:02        0.00
  Node_04032           JUNCTION     1.00     3.64   101.99     0  04:00        0.00
=======
  Node_03941           JUNCTION     0.84     3.40   102.21     0  03:26        0.00
  Node_03942           JUNCTION     0.86     3.46   102.21     0  03:26        0.00
  Node_03943           JUNCTION     0.92     3.58   102.19     0  03:26        0.00
  Node_03944           JUNCTION     0.99     3.69   102.17     0  03:25        0.00
  Node_03945           JUNCTION     1.04     3.75   102.17     0  03:41        0.00
  Node_03946           JUNCTION     1.09     3.80   102.15     0  03:39        0.00
  Node_03947           JUNCTION     1.26     3.91   101.80     0  03:52        0.00
  Node_03948           JUNCTION     1.19     3.73   101.58     0  03:58        0.00
  Node_03949           JUNCTION     1.28     3.74   101.44     0  03:58        0.00
  Node_03950           JUNCTION     1.12     3.49   101.26     0  03:57        0.00
  Node_03951           JUNCTION     1.08     3.30   100.99     0  03:58        0.00
  Node_03952           JUNCTION     1.05     3.09   100.68     0  03:58        0.00
  Node_03953           JUNCTION     0.93     2.75   100.32     0  03:56        0.00
  Node_03954           JUNCTION     1.79     3.37    99.95     0  03:58        0.00
  Node_03955           JUNCTION     0.71     2.05    99.54     0  03:58        0.00
[...]
  Link_01775                  52.720
  Link_01776                  49.095
  Link_01777                  45.387
  Link_01778                  41.741
  Link_01779                  38.057
  Link_01780                  34.355
  Link_01781                  30.513
  Link_01782                 250.808
  Link_01783                   7.214
  Link_01784                 262.421
  Link_01785                 267.168
  Link_01786                  57.467
  Link_01787                  28.606
  Link_01788                 357.905
  Link_01789                 362.842
  Link_01790                  12.509
  Link_01791                  10.821
  Link_01792                   8.994
  Link_01793                 396.616
  Link_01794                 401.494
  Link_01795                 406.188
  Link_01796                 410.828
  Link_01797                 415.462
  Link_01798                 903.267
  Link_01799                 896.609
  Link_01800                 908.773
  Link_01801                 434.062
  Link_01802                 865.397
  Link_01803                 890.531
  Link_01804                 766.442
  Link_01805                 761.096
  Link_01806                 755.554
  Link_01807                 749.917
  Link_01808                  10.740
  Link_01809                 734.457
  Link_01810                 724.873
  Link_01811                   3.629
  Link_01812                  48.415
  Link_01813                  39.378
  Link_01814                 699.722
  Link_01815                 693.671
  Link_01816                 682.442
  Link_01817                   5.393
  Link_01818                 655.308
  Link_01819                 640.975
  Link_01820                   8.974
  Link_01821                  21.579
  Link_01822                   4.641
  Link_01823                 130.819
=======
  Link_01767                 166.881
  Link_01768                 170.883
  Link_01769                 174.619
  Link_01770                 178.571
  Link_01771                 182.588
  Link_01772                  19.368
  Link_01773                 206.230
  Link_01774                  26.838
  Link_01775                  52.733
  Link_01776                  49.107
  Link_01777                  45.400
  Link_01778                  41.749
  Link_01779                  38.069
  Link_01780                  34.374
  Link_01781                  30.510
  Link_01782                 250.825
  Link_01783                   7.214
  Link_01784                 262.438
  Link_01785                 267.185
  Link_01786                  57.467
  Link_01787                  28.606
  Link_01788                 357.922
  Link_01789                 362.861
  Link_01790                  12.509
  Link_01791                  10.821
  Link_01792                   8.994
  Link_01793                 396.635
  Link_01794                 401.512
  Link_01795                 406.206
  Link_01796                 410.846
  Link_01797                 415.481
  Link_01798                 907.832
  Link_01799                 901.119
  Link_01800                 913.438
  Link_01801                 434.084
  Link_01802                 869.823
  Link_01803                 895.073
  Link_01804                 770.953
  Link_01805                 765.592
  Link_01806                 760.064
  Link_01807                 754.395
  Link_01808                  10.740
  Link_01809                 738.896
  Link_01810                 729.375
  Link_01811                   3.629
  Link_01812                  48.415
  Link_01813                  39.378
  Link_01814                 704.458
  Link_01815                 698.325
  Link_01816                 687.057
  Link_01817                   5.392
  Link_01818                 659.883
  Link_01819                 645.486
  Link_01820                   8.981
  Link_01821                  21.579
  Link_01822                   4.641
  Link_01823                 130.819
>>>>>>> b040755ab93617f94f1ab7a7036927f36e763e5a
>>>>>>> ebd46bdc835ac17077bb70c3b6f6db3a4ee81ecd
  Link_01824                 129.322
  Link_01825                  39.862
  Link_01826                  41.103
  Link_01827                   1.099
  Link_01828                  43.486
  Link_01829                   4.629
  Link_01830                  49.472
  Link_01831                   1.099
  Link_01832                  51.877
  Link_01833                  53.132
  Link_01834                  55.658
  Link_01835                   1.099
  Link_01836                  30.101
  Link_01837                  18.968
  Link_01838                  20.286
  Link_01839                  28.766
  Link_01840                  27.610
  Link_01841                  26.472
  Link_01842                  22.460
  Link_01843                  20.106
  Link_01844                  18.960
<<<<<<< HEAD
  Link_02074                   7.190
  Link_02075                 121.991
  Link_02076                 135.006
  Link_02077                  10.214
  Link_02078                 149.367
  Link_02079                   8.916
  Link_02080                 162.325
  Link_02081                 166.294
  Link_02082                 170.275
  Link_02083                   8.963
  Link_02084                   7.200
  Link_02085                 455.872
  Link_02086                 446.407
  Link_02087                 441.715
  Link_02088                 435.555
  Link_02089                 429.450
  Link_02090                 407.026
  Link_02091                 402.601
  Link_02092                 397.926
  Link_02093                   7.181
  Link_02094                 380.574
  Link_02095                 375.885
  Link_02096                 340.959
  Link_02097                  14.258
  Link_02098                  16.114
  Link_02099                 336.602
  Link_02100                 332.322
  Link_02101                  12.509
  Link_02102                 310.963
  Link_02103                 294.114
  Link_02104                  14.486
  Link_02105                 239.811
  Link_02106                  10.735
  Link_02107                   3.615
  Link_02108                 228.752
  Link_02109                 225.271
  Link_02110                 189.411
  Link_02111                 126.710
=======
<<<<<<< HEAD
  Link_02074                   7.187
  Link_02075                 122.015
  Link_02076                 135.042
  Link_02077                  10.214
  Link_02078                 149.407
  Link_02079                   8.914
  Link_02080                 162.361
  Link_02081                 166.364
  Link_02082                 170.324
  Link_02083                   8.963
  Link_02084                   7.200
  Link_02085                 464.778
  Link_02086                 455.364
  Link_02087                 450.666
  Link_02088                 444.689
  Link_02089                 438.723
  Link_02090                 416.276
  Link_02091                 411.465
  Link_02092                 406.789
  Link_02093                   7.171
  Link_02094                 388.940
  Link_02095                 384.090
  Link_02096                 348.849
  Link_02097                  14.245
  Link_02098                  16.114
  Link_02099                 344.110
  Link_02100                 339.415
  Link_02101                  12.535
  Link_02102                 317.279
  Link_02103                 300.091
  Link_02104                  14.619
  Link_02105                 245.526
  Link_02106                  10.741
  Link_02107                   3.615
  Link_02108                 235.190
  Link_02109                 231.704
  Link_02110                 189.407
=======
  Link_02074                   7.190
  Link_02075                 122.037
  Link_02076                 135.063
  Link_02077                  10.214
  Link_02078                 149.411
  Link_02079                   8.917
  Link_02080                 162.378
  Link_02081                 166.332
  Link_02082                 170.246
  Link_02083                   8.963
  Link_02084                   7.200
  Link_02085                 460.162
  Link_02086                 450.709
  Link_02087                 446.249
  Link_02088                 440.408
  Link_02089                 434.615
  Link_02090                 412.250
  Link_02091                 407.777
  Link_02092                 403.096
  Link_02093                   7.172
  Link_02094                 385.732
  Link_02095                 380.898
  Link_02096                 345.636
  Link_02097                  14.270
  Link_02098                  16.114
  Link_02099                 340.964
  Link_02100                 336.241
  Link_02101                  12.484
  Link_02102                 314.303
  Link_02103                 296.992
  Link_02104                  14.356
  Link_02105                 242.168
  Link_02106                  10.739
  Link_02107                   3.615
  Link_02108                 230.762
  Link_02109                 227.153
  Link_02110                 189.405
>>>>>>> b040755ab93617f94f1ab7a7036927f36e763e5a
  Link_02111                 126.709
>>>>>>> ebd46bdc835ac17077bb70c3b6f6db3a4ee81ecd
  Link_02112                  12.513
  Link_02113                  94.853
  Link_02114                  22.622
  Link_02115                  21.383
  Link_02116                  20.221
  Link_02117                  19.098
  Link_02118                  17.953
  Link_02123                   4.644
  Link_02124                   5.773
  Link_02125                   6.908
  Link_02126                   8.015
  Link_02127                  16.827
  Link_02128                  15.683
<<<<<<< HEAD
  Link_02129                  14.568
=======
<<<<<<< HEAD
  Link_02129                  14.567
=======
  Link_02129                  14.568
>>>>>>> b040755ab93617f94f1ab7a7036927f36e763e5a
>>>>>>> ebd46bdc835ac17077bb70c3b6f6db3a4ee81ecd
  Link_02130                  13.448
  Link_02131                  12.296
  Link_02132                  11.135
  Link_02133                   9.976
  Link_02134                  96.126
  Link_02135                  97.359
  Link_02136                 103.267
  Link_02137                   4.645
<<<<<<< HEAD
  Link_02138                 115.398
  Link_02139                 114.138
  Link_02140                 112.816
  Link_02141                 111.611
  Link_02142                 110.309
  Link_02143                 104.476
  Link_02383                   3.644
  Link_02384                   7.212
  Link_02385                  11.018
  Link_02386                  21.552
  Link_02387                  36.114
  Link_02388                  39.858
  Link_02389                  21.430
  Link_02390                  43.715
  Link_02391                  68.841
  Link_02392                  25.302
  Link_02393                  98.019
  Link_05459                  31.082
  Link_05460                  77.503
  Link_05461                 102.226
  Link_05462                 237.467
  Link_05463                 391.451
  Link_05464                  14.773
  Link_05496                1349.337
  Link_05662                  25.400
  Link_05663                   5.402
  Link_05664                  45.316
  Link_05665                 382.675
  Link_05677                 299.571
  Link_05678                  14.468
  Link_05720                 860.348
  Link_05721                 717.915
  Link_05722                  12.514
  Link_05723                  70.940
  Link_05725                   9.176
  Link_05726                 460.642
  Link_05727                   5.401
  Link_05728                 385.989
  Link_05729                 315.288
  Link_05730                 188.052
  Link_05731                 127.878
  Link_05732                 125.520
  Link_05742                  21.646
  Link_05743                 101.900
  Link_05744                 174.639
=======
  Link_02138                 115.397
  Link_02139                 114.138
<<<<<<< HEAD
  Link_02140                 112.815
  Link_02141                 111.610
  Link_02142                 110.309
  Link_02143                 104.476
  Link_02383                   3.647
  Link_02384                   7.202
  Link_02385                  10.909
  Link_02386                  21.548
  Link_02387                  36.093
  Link_02388                  39.852
  Link_02389                  21.424
  Link_02390                  43.728
  Link_02391                  68.857
  Link_02392                  25.277
  Link_02393                  98.014
  Link_05459                  31.082
  Link_05460                  77.503
  Link_05461                 102.225
  Link_05462                 237.489
  Link_05463                 391.474
  Link_05464                  14.775
  Link_05496                1359.015
  Link_05662                  25.400
  Link_05663                   5.402
  Link_05664                  45.342
  Link_05665                 383.098
  Link_05677                 300.029
  Link_05678                  14.467
  Link_05720                 869.453
  Link_05721                 726.373
  Link_05722                  12.514
  Link_05723                  70.940
  Link_05725                   9.176
  Link_05726                 469.230
  Link_05727                   5.396
  Link_05728                 394.887
  Link_05729                 321.960
  Link_05730                 188.052
  Link_05731                 127.877
  Link_05732                 125.519
  Link_05742                  21.616
  Link_05743                 101.927
  Link_05744                 174.715
=======
  Link_02140                 112.816
  Link_02141                 111.610
  Link_02142                 110.309
  Link_02143                 104.476
  Link_02383                   3.643
  Link_02384                   7.198
  Link_02385                  10.894
  Link_02386                  21.552
  Link_02387                  36.101
  Link_02388                  39.863
  Link_02389                  21.445
  Link_02390                  43.731
  Link_02391                  68.878
  Link_02392                  25.308
  Link_02393                  98.053
  Link_05459                  31.082
  Link_05460                  77.503
  Link_05461                 102.226
  Link_05462                 237.483
  Link_05463                 391.469
  Link_05464                  14.773
  Link_05496                1354.057
  Link_05662                  25.400
  Link_05663                   5.402
  Link_05664                  45.405
  Link_05665                 383.405
  Link_05677                 300.274
  Link_05678                  14.462
  Link_05720                 864.801
  Link_05721                 722.687
  Link_05722                  12.514
  Link_05723                  70.940
  Link_05725                   9.176
  Link_05726                 465.366
  Link_05727                   5.406
  Link_05728                 391.102
  Link_05729                 318.942
  Link_05730                 188.052
  Link_05731                 127.877
  Link_05732                 125.520
  Link_05742                  21.646
  Link_05743                 101.952
  Link_05744                 174.583
>>>>>>> b040755ab93617f94f1ab7a7036927f36e763e5a
>>>>>>> ebd46bdc835ac17077bb70c3b6f6db3a4ee81ecd
  Link_05752                  17.862
  Link_05753                   2.878
  Link_05754                  21.273
  Link_05791                   4.641
<<<<<<< HEAD
  Link_05812                 209.758
  Link_05813                 126.939
  Link_05814                 114.882
  Link_05815                 113.719
=======
<<<<<<< HEAD
  Link_05812                 210.114
  Link_05813                 127.078
  Link_05814                 114.901
  Link_05815                 113.696
=======
  Link_05812                 210.213
  Link_05813                 127.101
  Link_05814                 114.972
  Link_05815                 113.814
>>>>>>> b040755ab93617f94f1ab7a7036927f36e763e5a
>>>>>>> ebd46bdc835ac17077bb70c3b6f6db3a4ee81ecd
  Link_05816                  12.725
  Link_05817                  18.611
  Link_05818                   9.990
  Link_05983                  19.770
  Link_05984                  16.113
  Link_06039                   1.095
  Link_07220                  60.046
  Link_07221                  63.749
  Link_07222                  81.993
<<<<<<< HEAD
  Link_07230                  85.893
  Link_07231                  89.778
  Link_07233                 173.958
  Link_07234                 177.830
=======
<<<<<<< HEAD
  Link_07230                  85.892
  Link_07231                  89.778
  Link_07233                 173.958
  Link_07234                 177.830
=======
  Link_07230                  85.893
  Link_07231                  89.778
  Link_07233                 173.958
  Link_07234                 177.829
>>>>>>> b040755ab93617f94f1ab7a7036927f36e763e5a
>>>>>>> ebd46bdc835ac17077bb70c3b6f6db3a4ee81ecd
  Link_07235                  80.463
  Link_07270                  21.508
  Link_07271                  25.212
  Link_07274                  12.520
  Link_07277                  28.870
  Link_07278                  32.530
  Link_07295                  36.236
  Link_07296                  39.999
  Link_07297                  56.302
  Link_07303                   7.197
  Link_07306                   7.191
  Link_07321                   9.976
<<<<<<< HEAD
  Link_07464                  18.058
  Link_07578                  21.598
  Link_07579                 287.626
  Link_07580                 261.550
  Link_07687                  16.312
  Link_07865                   9.964
  Link_08891                   8.962
  Link_08912                  30.378
  Link1_to_ChengXi          1409.369
  Link2_to_ChengXi           391.360
  Link3_to_ChengXi           182.383
  Link_to_LaoDongLu          190.672
  Pump_ChengXi1             1242.458
  Pump_ChengXi2              375.454
  Pump_ChengXi3              217.511
  Pump_ChengXi4              217.511
  Pump_LaoDongLu1            157.269
  Pump_LaoDongLu2             39.096
  Pump_LaoDongLu3             26.390
  outfallpump               1218.237
  

  Analysis begun on:  Mon Aug 16 03:45:26 2021
  Analysis ended on:  Mon Aug 16 03:45:28 2021
=======
<<<<<<< HEAD
  Link_07464                  18.086
  Link_07578                  21.598
  Link_07579                 293.223
  Link_07580                 267.224
  Link_07687                  16.296
  Link_07865                   9.964
  Link_08891                   8.962
  Link_08912                  30.378
  Link1_to_ChengXi          1419.507
  Link2_to_ChengXi           391.780
  Link3_to_ChengXi           182.383
  Link_to_LaoDongLu          190.667
  Pump_ChengXi1              957.793
  Pump_ChengXi2              608.924
  Pump_ChengXi3              266.700
  Pump_ChengXi4              218.363
  Pump_LaoDongLu1            151.807
  Pump_LaoDongLu2             38.607
  Pump_LaoDongLu3             38.607
  outfallpump               1646.110
  

  Analysis begun on:  Mon Aug 16 03:27:38 2021
  Analysis ended on:  Mon Aug 16 03:27:40 2021
=======
  Link_07464                  18.104
  Link_07578                  21.598
  Link_07579                 290.556
  Link_07580                 264.422
  Link_07687                  16.316
  Link_07865                   9.964
  Link_08891                   8.962
  Link_08912                  30.378
  Link1_to_ChengXi          1414.772
  Link2_to_ChengXi           392.086
  Link3_to_ChengXi           182.382
  Link_to_LaoDongLu          190.666
  Pump_ChengXi1             1205.909
  Pump_ChengXi2              415.719
  Pump_ChengXi3              224.774
  Pump_ChengXi4              205.760
  Pump_LaoDongLu1            154.726
  Pump_LaoDongLu2             53.372
  Pump_LaoDongLu3             16.796
  outfallpump               1332.750
  

  Analysis begun on:  Tue Aug 17 21:45:08 2021
  Analysis ended on:  Tue Aug 17 21:45:10 2021
>>>>>>> b040755ab93617f94f1ab7a7036927f36e763e5a
>>>>>>> ebd46bdc835ac17077bb70c3b6f6db3a4ee81ecd
  Total elapsed time: 00:00:02