
  EPA STORM WATER MANAGEMENT MODEL - VERSION 5.1 (Build 5.3.0.dev0)
  --------------------------------------------------------------

  WARNING 04: minimum elevation drop used for Conduit Link_01776
  WARNING 04: minimum elevation drop used for Conduit Link_01779
  WARNING 04: minimum elevation drop used for Conduit Link_07234
  WARNING 02: maximum depth increased for Node Node_06087
  
  *********************************************************
  NOTE: The summary statistics displayed in this report are
  based on results found at every computational time step,  
  not just on results from each reporting time step.
  *********************************************************
  
  ****************
  Analysis Options
  ****************
  Flow Units ............... CMS
  Process Models:
    Rainfall/Runoff ........ YES
    RDII ................... NO
    Snowmelt ............... NO
    Groundwater ............ NO
    Flow Routing ........... YES
    Ponding Allowed ........ YES
    Water Quality .......... YES
  Infiltration Method ...... HORTON
  Flow Routing Method ...... DYNWAVE
  Surcharge Method ......... EXTRAN
  Starting Date ............ 01/02/2011 00:00:00
  Ending Date .............. 01/02/2011 06:00:00
  Antecedent Dry Days ...... 0.0
  Report Time Step ......... 00:15:00
  Wet Time Step ............ 00:05:00
  Dry Time Step ............ 01:00:00
  Routing Time Step ........ 60.00 sec
  Variable Time Step ....... YES
  Maximum Trials ........... 8
  Number of Threads ........ 1
  Head Tolerance ........... 0.001500 m
  
  
  **************************        Volume         Depth
  Runoff Quantity Continuity     hectare-m            mm
  **************************     ---------       -------
  Total Precipitation ......         0.429        15.000
  Evaporation Loss .........         0.000         0.000
  Infiltration Loss ........         0.050         1.751
  Surface Runoff ...........         0.380        13.276
  Final Storage ............         0.000         0.009
  Continuity Error (%) .....        -0.240
  
  
  **************************           COD
  Runoff Quality Continuity             kg
  **************************    ----------
  Initial Buildup ..........         0.000
  Surface Buildup ..........         0.000
  Wet Deposition ...........      1128.277
  Sweeping Removal .........         0.000
  Infiltration Loss ........       131.709
  BMP Removal ..............         0.000
  Surface Runoff ...........       998.567
  Remaining Buildup ........         0.706
  Continuity Error (%) .....        -0.240
  
  
  **************************        Volume        Volume
  Flow Routing Continuity        hectare-m      10^6 ltr
  **************************     ---------     ---------
  Dry Weather Inflow .......         0.153         1.529
  Wet Weather Inflow .......         0.380         3.797
  Groundwater Inflow .......         0.000         0.000
  RDII Inflow ..............         0.000         0.000
  External Inflow ..........         0.000         0.000
<<<<<<< HEAD
  External Outflow .........         0.554         5.544
=======
<<<<<<< HEAD
  External Outflow .........         0.567         5.665
=======
  External Outflow .........         0.556         5.559
>>>>>>> b040755ab93617f94f1ab7a7036927f36e763e5a
>>>>>>> ebd46bdc835ac17077bb70c3b6f6db3a4ee81ecd
  Flooding Loss ............         0.000         0.000
  Evaporation Loss .........         0.000         0.000
  Exfiltration Loss ........         0.000         0.000
  Initial Stored Volume ....         0.077         0.773
<<<<<<< HEAD
  Final Stored Volume ......         0.051         0.513
  Continuity Error (%) .....         0.675
=======
<<<<<<< HEAD
  Final Stored Volume ......         0.043         0.429
  Continuity Error (%) .....         0.067
=======
  Final Stored Volume ......         0.050         0.505
  Continuity Error (%) .....         0.577
>>>>>>> b040755ab93617f94f1ab7a7036927f36e763e5a
>>>>>>> ebd46bdc835ac17077bb70c3b6f6db3a4ee81ecd
  
  
  **************************           COD
  Quality Routing Continuity            kg
  **************************    ----------
  Dry Weather Inflow .......       845.606
  Wet Weather Inflow .......       998.552
  Groundwater Inflow .......         0.000
  RDII Inflow ..............         0.000
  External Inflow ..........         0.000
<<<<<<< HEAD
  External Outflow .........      1383.166
=======
<<<<<<< HEAD
  External Outflow .........      1881.255
=======
  External Outflow .........      1629.580
>>>>>>> b040755ab93617f94f1ab7a7036927f36e763e5a
>>>>>>> ebd46bdc835ac17077bb70c3b6f6db3a4ee81ecd
  Flooding Loss ............         0.000
  Exfiltration Loss ........         0.000
  Mass Reacted .............         0.000
  Initial Stored Mass ......       427.257
<<<<<<< HEAD
  Final Stored Mass ........       220.507
  Continuity Error (%) .....        29.398
=======
<<<<<<< HEAD
  Final Stored Mass ........       188.429
  Continuity Error (%) .....         8.881
=======
  Final Stored Mass ........       214.096
  Continuity Error (%) .....        18.831
>>>>>>> b040755ab93617f94f1ab7a7036927f36e763e5a
>>>>>>> ebd46bdc835ac17077bb70c3b6f6db3a4ee81ecd
  
  
  *************************
  Highest Continuity Errors
  *************************
<<<<<<< HEAD
  Node Node_04461 (-1.38%)
  Node Node_04451 (-1.36%)
  Node Node_04563 (1.28%)
=======
<<<<<<< HEAD
  Node Node_04451 (-1.71%)
  Node Node_04461 (-1.51%)
  Node Node_04563 (1.28%)
=======
  Node Node_04563 (1.28%)
  Node Node_04451 (-1.26%)
>>>>>>> b040755ab93617f94f1ab7a7036927f36e763e5a
>>>>>>> ebd46bdc835ac17077bb70c3b6f6db3a4ee81ecd
  Node Node_02706 (-1.06%)
  
  
  ***************************
  Time-Step Critical Elements
  ***************************
<<<<<<< HEAD
  Link Link_01778 (99.61%)
=======
<<<<<<< HEAD
  Link Link_01778 (95.60%)
  Link Link_01558 (4.10%)
=======
  Link Link_01778 (99.63%)
>>>>>>> b040755ab93617f94f1ab7a7036927f36e763e5a
>>>>>>> ebd46bdc835ac17077bb70c3b6f6db3a4ee81ecd
  
  
  ********************************
  Highest Flow Instability Indexes
  ********************************
<<<<<<< HEAD
  Link Link_01778 (67)
  Link Link_01777 (53)
  Link Link_01323 (16)
  Link Link_01335 (15)
  Link Link_01325 (15)
=======
<<<<<<< HEAD
  Link Link_01778 (60)
  Link Link_01777 (50)
  Link Link_01323 (27)
  Link Link_01325 (24)
  Link Link_01335 (24)
=======
  Link Link_01778 (68)
  Link Link_01777 (55)
  Link Link_01323 (12)
  Link Link_01325 (11)
  Link Link_01335 (10)
>>>>>>> b040755ab93617f94f1ab7a7036927f36e763e5a
>>>>>>> ebd46bdc835ac17077bb70c3b6f6db3a4ee81ecd
  
  
  *************************
  Routing Time Step Summary
  *************************
  Minimum Time Step           :     5.00 sec
  Average Time Step           :     5.00 sec
  Maximum Time Step           :     5.00 sec
  Percent in Steady State     :     0.00
<<<<<<< HEAD
  Average Iterations per Step :     2.91
  Percent Not Converging      :     1.64
=======
<<<<<<< HEAD
  Average Iterations per Step :     3.34
  Percent Not Converging      :     3.61
=======
  Average Iterations per Step :     2.91
  Percent Not Converging      :     1.67
>>>>>>> b040755ab93617f94f1ab7a7036927f36e763e5a
>>>>>>> ebd46bdc835ac17077bb70c3b6f6db3a4ee81ecd
  
  
  ***************************
  Subcatchment Runoff Summary
  ***************************
  
  ------------------------------------------------------------------------------------------------------------------------------
                            Total      Total      Total      Total     Imperv       Perv      Total       Total     Peak  Runoff
                           Precip      Runon       Evap      Infil     Runoff     Runoff     Runoff      Runoff   Runoff   Coeff
  Subcatchment                 mm         mm         mm         mm         mm         mm         mm    10^6 ltr      CMS
  ------------------------------------------------------------------------------------------------------------------------------
  2707                      15.00       0.00       0.00       1.76       3.75       9.52      13.27        0.01     0.00   0.885
  2708                      15.00       0.00       0.00       1.76       3.75       9.52      13.27        0.01     0.00   0.885
  2709                      15.00       0.00       0.00       1.76       3.75       9.52      13.27        0.01     0.00   0.885
  2710                      15.00       0.00       0.00       1.76       3.75       9.52      13.27        0.01     0.00   0.885
  2712                      15.00       0.00       0.00       1.76       3.75       9.52      13.27        0.01     0.00   0.885
  2713                      15.00       0.00       0.00       1.76       3.75       9.52      13.27        0.01     0.00   0.885
  2714                      15.00       0.00       0.00       1.76       3.75       9.52      13.27        0.01     0.00   0.885
  2715                      15.00       0.00       0.00       1.76       3.75       9.52      13.27        0.01     0.00   0.885
  2716                      15.00       0.00       0.00       1.76       3.75       9.52      13.27        0.01     0.00   0.885
  2717                      15.00       0.00       0.00       1.76       3.75       9.52      13.27        0.01     0.00   0.885
  2718                      15.00       0.00       0.00       1.76       3.75       9.52      13.27        0.01     0.00   0.885
  2719                      15.00       0.00       0.00       1.76       3.75       9.52      13.27        0.01     0.00   0.885
  2721                      15.00       0.00       0.00       1.76       3.75       9.52      13.27        0.01     0.00   0.885
  2722                      15.00       0.00       0.00       1.76       3.75       9.52      13.27        0.01     0.00   0.885
  2723                      15.00       0.00       0.00       1.76       3.75       9.52      13.27        0.01     0.00   0.885
  2724                      15.00       0.00       0.00       1.76       3.75       9.52      13.27        0.01     0.00   0.885
  2725                      15.00       0.00       0.00       1.76       3.75       9.52      13.27        0.01     0.00   0.885
  2726                      15.00       0.00       0.00       1.76       3.75       9.52      13.27        0.01     0.00   0.885
  2727                      15.00       0.00       0.00       1.76       3.75       9.52      13.27        0.01     0.00   0.885
  2728                      15.00       0.00       0.00       1.76       3.75       9.52      13.27        0.01     0.00   0.885
  2729                      15.00       0.00       0.00       1.76       3.75       9.52      13.27        0.01     0.00   0.885
  2730                      15.00       0.00       0.00       1.76       3.75       9.52      13.27        0.01     0.00   0.885
  2731                      15.00       0.00       0.00       1.76       3.75       9.52      13.27        0.01     0.00   0.885
  2732                      15.00       0.00       0.00       1.76       3.75       9.52      13.27        0.01     0.00   0.885
  2733                      15.00       0.00       0.00       1.76       3.75       9.52      13.27        0.01     0.00   0.885
  2734                      15.00       0.00       0.00       1.76       3.75       9.52      13.27        0.01     0.00   0.885
  2735                      15.00       0.00       0.00       1.76       3.75       9.52      13.27        0.01     0.00   0.885
  2736                      15.00       0.00       0.00       1.76       3.75       9.52      13.27        0.01     0.00   0.885
  2737                      15.00       0.00       0.00       1.76       3.75       9.52      13.27        0.01     0.00   0.885
  2738                      15.00       0.00       0.00       1.76       3.75       9.52      13.27        0.01     0.00   0.885
  2739                      15.00       0.00       0.00       1.76       3.75       9.52      13.27        0.01     0.00   0.885
  2740                      15.00       0.00       0.00       1.76       3.75       9.52      13.27        0.01     0.00   0.885
  2741                      15.00       0.00       0.00       1.76       3.75       9.52      13.27        0.01     0.00   0.885
  2742                      15.00       0.00       0.00       1.76       3.75       9.52      13.27        0.01     0.00   0.885
  2743                      15.00       0.00       0.00       1.76       3.75       9.52      13.27        0.01     0.00   0.885
  2744                      15.00       0.00       0.00       1.76       3.75       9.52      13.27        0.01     0.00   0.885
  2745                      15.00       0.00       0.00       1.76       3.75       9.52      13.27        0.01     0.00   0.885
  2746                      15.00       0.00       0.00       1.76       3.75       9.52      13.27        0.01     0.00   0.885
  2747                      15.00       0.00       0.00       1.76       3.75       9.52      13.27        0.01     0.00   0.885
  2748                      15.00       0.00       0.00       1.76       3.75       9.52      13.27        0.01     0.00   0.885
  2749                      15.00       0.00       0.00       1.76       3.75       9.52      13.27        0.01     0.00   0.885
  2750                      15.00       0.00       0.00       1.76       3.75       9.52      13.27        0.01     0.00   0.885
  2751                      15.00       0.00       0.00       1.76       3.75       9.52      13.27        0.01     0.00   0.885
  2752                      15.00       0.00       0.00       1.76       3.75       9.52      13.27        0.01     0.00   0.885
  2753                      15.00       0.00       0.00       1.76       3.75       9.52      13.27        0.01     0.00   0.885
  2754                      15.00       0.00       0.00       1.76       3.75       9.52      13.27        0.01     0.00   0.885
  2755                      15.00       0.00       0.00       1.76       3.75       9.52      13.27        0.01     0.00   0.885
  2756                      15.00       0.00       0.00       1.76       3.75       9.52      13.27        0.01     0.00   0.885
  2964                      15.00       0.00       0.00       1.76       3.75       9.52      13.27        0.01     0.00   0.885
  2969                      15.00       0.00       0.00       1.76       3.75       9.52      13.27        0.01     0.00   0.885
  2970                      15.00       0.00       0.00       1.76       3.75       9.52      13.27        0.01     0.00   0.885
  2974                      15.00       0.00       0.00       1.76       3.75       9.52      13.27        0.01     0.00   0.885
  2975                      15.00       0.00       0.00       1.76       3.75       9.52      13.27        0.01     0.00   0.885
  2976                      15.00       0.00       0.00       1.76       3.75       9.52      13.27        0.01     0.00   0.885
  2977                      15.00       0.00       0.00       1.76       3.75       9.52      13.27        0.01     0.00   0.885
  2978                      15.00       0.00       0.00       1.76       3.75       9.52      13.27        0.01     0.00   0.885
  2979                      15.00       0.00       0.00       1.76       3.75       9.52      13.27        0.01     0.00   0.885
  2980                      15.00       0.00       0.00       1.76       3.75       9.52      13.27        0.01     0.00   0.885
  2981                      15.00       0.00       0.00       1.76       3.75       9.52      13.27        0.01     0.00   0.885
  2982                      15.00       0.00       0.00       1.76       3.75       9.52      13.27        0.01     0.00   0.885
  2984                      15.00       0.00       0.00       1.76       3.75       9.52      13.27        0.01     0.00   0.885
  2985                      15.00       0.00       0.00       1.76       3.75       9.52      13.27        0.01     0.00   0.885
  3925                      15.00       0.00       0.00       1.76       3.75       9.52      13.27        0.01     0.00   0.885
  3926                      15.00       0.00       0.00       1.76       3.75       9.52      13.27        0.01     0.00   0.885
  3927                      15.00       0.00       0.00       1.76       3.75       9.52      13.27        0.01     0.00   0.885
  3928                      15.00       0.00       0.00       1.76       3.75       9.52      13.27        0.01     0.00   0.885
  3929                      15.00       0.00       0.00       1.76       3.75       9.52      13.27        0.01     0.00   0.885
  3930                      15.00       0.00       0.00       1.76       3.75       9.52      13.27        0.01     0.00   0.885
  3931                      15.00       0.00       0.00       1.76       3.75       9.52      13.27        0.01     0.00   0.885
  3932                      15.00       0.00       0.00       1.76       3.75       9.52      13.27        0.01     0.00   0.885
  3933                      15.00       0.00       0.00       1.76       3.75       9.52      13.27        0.01     0.00   0.885
  3934                      15.00       0.00       0.00       1.76       3.75       9.52      13.27        0.01     0.00   0.885
  3935                      15.00       0.00       0.00       1.76       3.75       9.52      13.27        0.01     0.00   0.885
  3936                      15.00       0.00       0.00       1.76       3.75       9.52      13.27        0.01     0.00   0.885
  3937                      15.00       0.00       0.00       1.76       3.75       9.52      13.27        0.01     0.00   0.885
  3938                      15.00       0.00       0.00       1.76       3.75       9.52      13.27        0.01     0.00   0.885
  3939                      15.00       0.00       0.00       1.76       3.75       9.52      13.27        0.01     0.00   0.885
  3940                      15.00       0.00       0.00       1.76       3.75       9.52      13.27        0.01     0.00   0.885
  3941                      15.00       0.00       0.00       1.76       3.75       9.52      13.27        0.01     0.00   0.885
  3942                      15.00       0.00       0.00       1.76       3.75       9.52      13.27        0.01     0.00   0.885
  3943                      15.00       0.00       0.00       1.76       3.75       9.52      13.27        0.01     0.00   0.885
  3944                      15.00       0.00       0.00       1.76       3.75       9.52      13.27        0.01     0.00   0.885
  3945                      15.00       0.00       0.00       1.76       3.75       9.52      13.27        0.01     0.00   0.885
  3946                      15.00       0.00       0.00       1.76       3.75       9.52      13.27        0.01     0.00   0.885
  3947                      15.00       0.00       0.00       1.76       3.75       9.52      13.27        0.01     0.00   0.885
  3948                      15.00       0.00       0.00       1.76       3.75       9.52      13.27        0.01     0.00   0.885
  3949                      15.00       0.00       0.00       1.76       3.75       9.52      13.27        0.01     0.00   0.885
  3950                      15.00       0.00       0.00       1.76       3.75       9.52      13.27        0.01     0.00   0.885
  3951                      15.00       0.00       0.00       1.76       3.75       9.52      13.27        0.01     0.00   0.885
  3952                      15.00       0.00       0.00       1.76       3.75       9.52      13.27        0.01     0.00   0.885
  3953                      15.00       0.00       0.00       1.76       3.75       9.52      13.27        0.01     0.00   0.885
  3954                      15.00       0.00       0.00       1.76       3.75       9.52      13.27        0.01     0.00   0.885
  3955                      15.00       0.00       0.00       1.76       3.75       9.52      13.27        0.01     0.00   0.885
  3956                      15.00       0.00       0.00       1.76       3.75       9.52      13.27        0.01     0.00   0.885
  4032                      15.00       0.00       0.00       1.76       3.75       9.52      13.27        0.01     0.00   0.885
  4033                      15.00       0.00       0.00       1.76       3.75       9.52      13.27        0.01     0.00   0.885
  4041                      15.00       0.00       0.00       1.76       3.75       9.52      13.27        0.01     0.00   0.885
  4051                      15.00       0.00       0.00       1.76       3.75       9.52      13.27        0.01     0.00   0.885
  4055                      15.00       0.00       0.00       1.76       3.75       9.52      13.27        0.01     0.00   0.885
  4056                      15.00       0.00       0.00       1.76       3.75       9.52      13.27        0.01     0.00   0.885
  4058                      15.00       0.00       0.00       1.76       3.75       9.52      13.27        0.01     0.00   0.885
  4385                      15.00       0.00       0.00       1.76       3.75       9.52      13.27        0.01     0.00   0.885
  4386                      15.00       0.00       0.00       1.76       3.75       9.52      13.27        0.01     0.00   0.885
  4387                      15.00       0.00       0.00       1.76       3.75       9.52      13.27        0.01     0.00   0.885
  4388                      15.00       0.00       0.00       1.76       3.75       9.52      13.27        0.01     0.00   0.885
  4389                      15.00       0.00       0.00       1.76       3.75       9.52      13.27        0.01     0.00   0.885
  4390                      15.00       0.00       0.00       1.76       3.75       9.52      13.27        0.01     0.00   0.885
  4391                      15.00       0.00       0.00       1.76       3.75       9.52      13.27        0.01     0.00   0.885
  4392                      15.00       0.00       0.00       1.76       3.75       9.52      13.27        0.01     0.00   0.885
  4393                      15.00       0.00       0.00       1.76       3.75       9.52      13.27        0.01     0.00   0.885
  4394                      15.00       0.00       0.00       1.76       3.75       9.52      13.27        0.01     0.00   0.885
  4395                      15.00       0.00       0.00       1.76       3.75       9.52      13.27        0.01     0.00   0.885
  4396                      15.00       0.00       0.00       1.76       3.75       9.52      13.27        0.01     0.00   0.885
  4397                      15.00       0.00       0.00       1.76       3.75       9.52      13.27        0.01     0.00   0.885
  4398                      15.00       0.00       0.00       1.76       3.75       9.52      13.27        0.01     0.00   0.885
  4429                      15.00       0.00       0.00       1.76       3.75       9.52      13.27        0.01     0.00   0.885
  4430                      15.00       0.00       0.00       1.76       3.75       9.52      13.27        0.01     0.00   0.885
  4431                      15.00       0.00       0.00       1.76       3.75       9.52      13.27        0.01     0.00   0.885
  4432                      15.00       0.00       0.00       1.76       3.75       9.52      13.27        0.01     0.00   0.885
  4433                      15.00       0.00       0.00       1.76       3.75       9.52      13.27        0.01     0.00   0.885
  4434                      15.00       0.00       0.00       1.76       3.75       9.52      13.27        0.01     0.00   0.885
  4435                      15.00       0.00       0.00       1.76       3.75       9.52      13.27        0.01     0.00   0.885
  4436                      15.00       0.00       0.00       1.76       3.75       9.52      13.27        0.01     0.00   0.885
  4437                      15.00       0.00       0.00       1.76       3.75       9.52      13.27        0.01     0.00   0.885
  4438                      15.00       0.00       0.00       1.76       3.75       9.52      13.27        0.01     0.00   0.885
  4439                      15.00       0.00       0.00       1.76       3.75       9.52      13.27        0.01     0.00   0.885
  4440                      15.00       0.00       0.00       1.76       3.75       9.52      13.27        0.01     0.00   0.885
  4441                      15.00       0.00       0.00       1.76       3.75       9.52      13.27        0.01     0.00   0.885
  4442                      15.00       0.00       0.00       1.76       3.75       9.52      13.27        0.01     0.00   0.885
  4443                      15.00       0.00       0.00       1.76       3.75       9.52      13.27        0.01     0.00   0.885
  4444                      15.00       0.00       0.00       1.76       3.75       9.52      13.27        0.01     0.00   0.885
  4445                      15.00       0.00       0.00       1.76       3.75       9.52      13.27        0.01     0.00   0.885
  4446                      15.00       0.00       0.00       1.76       3.75       9.52      13.27        0.01     0.00   0.885
  4447                      15.00       0.00       0.00       1.76       3.75       9.52      13.27        0.01     0.00   0.885
  4448                      15.00       0.00       0.00       1.76       3.75       9.52      13.27        0.01     0.00   0.885
  4449                      15.00       0.00       0.00       1.76       3.75       9.52      13.27        0.01     0.00   0.885
  4450                      15.00       0.00       0.00       1.76       3.75       9.52      13.27        0.01     0.00   0.885
  4451                      15.00       0.00       0.00       1.76       3.75       9.52      13.27        0.01     0.00   0.885
  4452                      15.00       0.00       0.00       1.76       3.75       9.52      13.27        0.01     0.00   0.885
  4453                      15.00       0.00       0.00       1.76       3.75       9.52      13.27        0.01     0.00   0.885
  4454                      15.00       0.00       0.00       1.76       3.75       9.52      13.27        0.01     0.00   0.885
  4462                      15.00       0.00       0.00       1.76       3.75       9.52      13.27        0.01     0.00   0.885
  4463                      15.00       0.00       0.00       1.76       3.75       9.52      13.27        0.01     0.00   0.885
  4563                      15.00       0.00       0.00       1.76       3.75       9.52      13.27        0.01     0.00   0.885
  4564                      15.00       0.00       0.00       1.76       3.75       9.52      13.27        0.01     0.00   0.885
  4565                      15.00       0.00       0.00       1.76       3.75       9.52      13.27        0.01     0.00   0.885
  4566                      15.00       0.00       0.00       1.76       3.75       9.52      13.27        0.01     0.00   0.885
  4567                      15.00       0.00       0.00       1.76       3.75       9.52      13.27        0.01     0.00   0.885
  4568                      15.00       0.00       0.00       1.76       3.75       9.52      13.27        0.01     0.00   0.885
  4569                      15.00       0.00       0.00       1.76       3.75       9.52      13.27        0.01     0.00   0.885
  4570                      15.00       0.00       0.00       1.76       3.75       9.52      13.27        0.01     0.00   0.885
  4571                      15.00       0.00       0.00       1.76       3.75       9.52      13.27        0.01     0.00   0.885
  4572                      15.00       0.00       0.00       1.76       3.75       9.52      13.27        0.01     0.00   0.885
  4573                      15.00       0.00       0.00       1.76       3.75       9.52      13.27        0.01     0.00   0.885
  4574                      15.00       0.00       0.00       1.76       3.75       9.52      13.27        0.01     0.00   0.885
  4575                      15.00       0.00       0.00       1.76       3.75       9.52      13.27        0.01     0.00   0.885
  4576                      15.00       0.00       0.00       1.76       3.75       9.52      13.27        0.01     0.00   0.885
  4577                      15.00       0.00       0.00       1.76       3.75       9.52      13.27        0.01     0.00   0.885
  4578                      15.00       0.00       0.00       1.76       3.75       9.52      13.27        0.01     0.00   0.885
  4579                      15.00       0.00       0.00       1.76       3.75       9.52      13.27        0.01     0.00   0.885
  4580                      15.00       0.00       0.00       1.76       3.75       9.52      13.27        0.01     0.00   0.885
  4581                      15.00       0.00       0.00       1.76       3.75       9.52      13.27        0.01     0.00   0.885
  4624                      15.00       0.00       0.00       1.76       3.75       9.52      13.27        0.01     0.00   0.885
  4625                      15.00       0.00       0.00       1.76       3.75       9.52      13.27        0.01     0.00   0.885
  4644                      15.00       0.00       0.00       1.76       3.75       9.52      13.27        0.01     0.00   0.885
  4645                      15.00       0.00       0.00       1.76       3.75       9.52      13.27        0.01     0.00   0.885
  4646                      15.00       0.00       0.00       1.76       3.75       9.52      13.27        0.01     0.00   0.885
  4679                      15.00       0.00       0.00       1.76       3.75       9.52      13.27        0.01     0.00   0.885
  4680                      15.00       0.00       0.00       1.76       3.75       9.52      13.27        0.01     0.00   0.885
  4681                      15.00       0.00       0.00       1.76       3.75       9.52      13.27        0.01     0.00   0.885
  4682                      15.00       0.00       0.00       1.76       3.75       9.52      13.27        0.01     0.00   0.885
  4683                      15.00       0.00       0.00       1.76       3.75       9.52      13.27        0.01     0.00   0.885
  4711                      15.00       0.00       0.00       1.76       3.75       9.52      13.27        0.01     0.00   0.885
  4712                      15.00       0.00       0.00       1.76       3.75       9.52      13.27        0.01     0.00   0.885
  4713                      15.00       0.00       0.00       1.76       3.75       9.52      13.27        0.01     0.00   0.885
  4714                      15.00       0.00       0.00       1.76       3.75       9.52      13.27        0.01     0.00   0.885
  4715                      15.00       0.00       0.00       1.76       3.75       9.52      13.27        0.01     0.00   0.885
  4716                      15.00       0.00       0.00       1.76       3.75       9.52      13.27        0.01     0.00   0.885
  4717                      15.00       0.00       0.00       1.76       3.75       9.52      13.27        0.01     0.00   0.885
  4718                      15.00       0.00       0.00       1.76       3.75       9.52      13.27        0.01     0.00   0.885
  4722                      15.00       0.00       0.00       1.76       3.75       9.52      13.27        0.01     0.00   0.885
  4760                      15.00       0.00       0.00       1.76       3.75       9.52      13.27        0.01     0.00   0.885
  4761                      15.00       0.00       0.00       1.76       3.75       9.52      13.27        0.01     0.00   0.885
  4765                      15.00       0.00       0.00       1.76       3.75       9.52      13.27        0.01     0.00   0.885
  4766                      15.00       0.00       0.00       1.76       3.75       9.52      13.27        0.01     0.00   0.885
  4767                      15.00       0.00       0.00       1.76       3.75       9.52      13.27        0.01     0.00   0.885
  4768                      15.00       0.00       0.00       1.76       3.75       9.52      13.27        0.01     0.00   0.885
  4769                      15.00       0.00       0.00       1.76       3.75       9.52      13.27        0.01     0.00   0.885
  4855                      15.00       0.00       0.00       1.76       3.75       9.52      13.27        0.01     0.00   0.885
  4856                      15.00       0.00       0.00       1.76       3.75       9.52      13.27        0.01     0.00   0.885
  5284                      15.00       0.00       0.00       1.76       3.75       9.52      13.27        0.01     0.00   0.885
  5285                      15.00       0.00       0.00       1.76       3.75       9.52      13.27        0.01     0.00   0.885
  5286                      15.00       0.00       0.00       1.76       3.75       9.52      13.27        0.01     0.00   0.885
  5287                      15.00       0.00       0.00       1.76       3.75       9.52      13.27        0.01     0.00   0.885
  5288                      15.00       0.00       0.00       1.76       3.75       9.52      13.27        0.01     0.00   0.885
  5289                      15.00       0.00       0.00       1.76       3.75       9.52      13.27        0.01     0.00   0.885
  5290                      15.00       0.00       0.00       1.76       3.75       9.52      13.27        0.01     0.00   0.885
  5291                      15.00       0.00       0.00       1.76       3.75       9.52      13.27        0.01     0.00   0.885
  5292                      15.00       0.00       0.00       1.76       3.75       9.52      13.27        0.01     0.00   0.885
  5293                      15.00       0.00       0.00       1.76       3.75       9.52      13.27        0.01     0.00   0.885
  5294                      15.00       0.00       0.00       1.76       3.75       9.52      13.27        0.01     0.00   0.885
  5295                      15.00       0.00       0.00       1.76       3.75       9.52      13.27        0.01     0.00   0.885
  5296                      15.00       0.00       0.00       1.76       3.75       9.52      13.27        0.01     0.00   0.885
  5297                      15.00       0.00       0.00       1.76       3.75       9.52      13.27        0.01     0.00   0.885
  5298                      15.00       0.00       0.00       1.76       3.75       9.52      13.27        0.01     0.00   0.885
  5299                      15.00       0.00       0.00       1.76       3.75       9.52      13.27        0.01     0.00   0.885
  5300                      15.00       0.00       0.00       1.76       3.75       9.52      13.27        0.01     0.00   0.885
  5301                      15.00       0.00       0.00       1.76       3.75       9.52      13.27        0.01     0.00   0.885
  5302                      15.00       0.00       0.00       1.76       3.75       9.52      13.27        0.01     0.00   0.885
  5303                      15.00       0.00       0.00       1.76       3.75       9.52      13.27        0.01     0.00   0.885
  5304                      15.00       0.00       0.00       1.76       3.75       9.52      13.27        0.01     0.00   0.885
  5305                      15.00       0.00       0.00       1.76       3.75       9.52      13.27        0.01     0.00   0.885
  5306                      15.00       0.00       0.00       1.76       3.75       9.52      13.27        0.01     0.00   0.885
  5307                      15.00       0.00       0.00       1.76       3.75       9.52      13.27        0.01     0.00   0.885
  5308                      15.00       0.00       0.00       1.76       3.75       9.52      13.27        0.01     0.00   0.885
  5309                      15.00       0.00       0.00       1.76       3.75       9.52      13.27        0.01     0.00   0.885
  5310                      15.00       0.00       0.00       1.76       3.75       9.52      13.27        0.01     0.00   0.885
  5311                      15.00       0.00       0.00       1.76       3.75       9.52      13.27        0.01     0.00   0.885
  5312                      15.00       0.00       0.00       1.76       3.75       9.52      13.27        0.01     0.00   0.885
  5313                      15.00       0.00       0.00       1.76       3.75       9.52      13.27        0.01     0.00   0.885
  5314                      15.00       0.00       0.00       1.76       3.75       9.52      13.27        0.01     0.00   0.885
  5315                      15.00       0.00       0.00       1.76       3.75       9.52      13.27        0.01     0.00   0.885
  5316                      15.00       0.00       0.00       1.76       3.75       9.52      13.27        0.01     0.00   0.885
  5317                      15.00       0.00       0.00       1.76       3.75       9.52      13.27        0.01     0.00   0.885
  5318                      15.00       0.00       0.00       1.76       3.75       9.52      13.27        0.01     0.00   0.885
  5319                      15.00       0.00       0.00       1.76       3.75       9.52      13.27        0.01     0.00   0.885
  5320                      15.00       0.00       0.00       1.76       3.75       9.52      13.27        0.01     0.00   0.885
  5321                      15.00       0.00       0.00       1.76       3.75       9.52      13.27        0.01     0.00   0.885
  5322                      15.00       0.00       0.00       1.76       3.75       9.52      13.27        0.01     0.00   0.885
  5323                      15.00       0.00       0.00       1.76       3.75       9.52      13.27        0.01     0.00   0.885
  5324                      15.00       0.00       0.00       1.76       3.75       9.52      13.27        0.01     0.00   0.885
  5325                      15.00       0.00       0.00       1.76       3.75       9.52      13.27        0.01     0.00   0.885
  5326                      15.00       0.00       0.00       1.76       3.75       9.52      13.27        0.01     0.00   0.885
  5327                      15.00       0.00       0.00       1.76       3.75       9.52      13.27        0.01     0.00   0.885
  5328                      15.00       0.00       0.00       1.76       3.75       9.52      13.27        0.01     0.00   0.885
  5329                      15.00       0.00       0.00       1.76       3.75       9.52      13.27        0.01     0.00   0.885
  5330                      15.00       0.00       0.00       1.76       3.75       9.52      13.27        0.01     0.00   0.885
  5333                      15.00       0.00       0.00       1.76       3.75       9.52      13.27        0.01     0.00   0.885
  5334                      15.00       0.00       0.00       1.76       3.75       9.52      13.27        0.01     0.00   0.885
  6040                      15.00       0.00       0.00       1.76       3.75       9.52      13.27        0.01     0.00   0.885
  6041                      15.00       0.00       0.00       1.76       3.75       9.52      13.27        0.01     0.00   0.885
  6162                      15.00       0.00       0.00       1.76       3.75       9.52      13.27        0.01     0.00   0.885
  7207                      15.00       0.00       0.00       1.76       3.75       9.52      13.27        0.01     0.00   0.885
  7208                      15.00       0.00       0.00       1.76       3.75       9.52      13.27        0.01     0.00   0.885
  7213                      15.00       0.00       0.00       1.76       3.75       9.52      13.27        0.01     0.00   0.885
  7214                      15.00       0.00       0.00       1.76       3.75       9.52      13.27        0.01     0.00   0.885
  7219                      15.00       0.00       0.00       1.76       3.75       9.52      13.27        0.01     0.00   0.885
  7220                      15.00       0.00       0.00       1.76       3.75       9.52      13.27        0.01     0.00   0.885
  7221                      15.00       0.00       0.00       1.76       3.75       9.52      13.27        0.01     0.00   0.885
  7225                      15.00       0.00       0.00       1.76       3.75       9.52      13.27        0.01     0.00   0.885
  7229                      15.00       0.00       0.00       1.76       3.75       9.52      13.27        0.01     0.00   0.885
  7231                      15.00       0.00       0.00       1.76       3.75       9.52      13.27        0.01     0.00   0.885
  7268                      15.00       0.00       0.00       1.76       3.75       9.52      13.27        0.01     0.00   0.885
  7269                      15.00       0.00       0.00       1.76       3.75       9.52      13.27        0.01     0.00   0.885
  7271                      15.00       0.00       0.00       1.76       3.75       9.52      13.27        0.01     0.00   0.885
  7272                      15.00       0.00       0.00       1.76       3.75       9.52      13.27        0.01     0.00   0.885
  7273                      15.00       0.00       0.00       1.76       3.75       9.52      13.27        0.01     0.00   0.885
  7433                      15.00       0.00       0.00       1.76       3.75       9.52      13.27        0.01     0.00   0.885
  7434                      15.00       0.00       0.00       1.76       3.75       9.52      13.27        0.01     0.00   0.885
  7544                      15.00       0.00       0.00       1.76       3.75       9.52      13.27        0.01     0.00   0.885
  7545                      15.00       0.00       0.00       1.76       3.75       9.52      13.27        0.01     0.00   0.885
  8737                      15.00       0.00       0.00       1.76       3.75       9.52      13.27        0.01     0.00   0.885
  8818                      15.00       0.00       0.00       1.76       3.75       9.52      13.27        0.01     0.00   0.885
  9942                      15.00       0.00       0.00       1.76       3.75       9.52      13.27        0.01     0.00   0.885
  9957                      15.00       0.00       0.00       1.76       3.75       9.52      13.27        0.01     0.00   0.885
  4399                      15.00       0.00       0.00       1.69       3.75       9.60      13.35        0.00     0.00   0.890
  4400                      15.00       0.00       0.00       1.69       3.75       9.60      13.35        0.00     0.00   0.890
  4401                      15.00       0.00       0.00       1.69       3.75       9.60      13.35        0.00     0.00   0.890
  4402                      15.00       0.00       0.00       1.69       3.75       9.60      13.35        0.00     0.00   0.890
  4403                      15.00       0.00       0.00       1.69       3.75       9.60      13.35        0.00     0.00   0.890
  4404                      15.00       0.00       0.00       1.69       3.75       9.60      13.35        0.00     0.00   0.890
  4405                      15.00       0.00       0.00       1.69       3.75       9.60      13.35        0.00     0.00   0.890
  4406                      15.00       0.00       0.00       1.69       3.75       9.60      13.35        0.00     0.00   0.890
  4407                      15.00       0.00       0.00       1.69       3.75       9.60      13.35        0.00     0.00   0.890
  4408                      15.00       0.00       0.00       1.69       3.75       9.60      13.35        0.00     0.00   0.890
  4409                      15.00       0.00       0.00       1.69       3.75       9.60      13.35        0.00     0.00   0.890
  4410                      15.00       0.00       0.00       1.69       3.75       9.60      13.35        0.00     0.00   0.890
  4411                      15.00       0.00       0.00       1.69       3.75       9.60      13.35        0.00     0.00   0.890
  4412                      15.00       0.00       0.00       1.69       3.75       9.60      13.35        0.00     0.00   0.890
  4423                      15.00       0.00       0.00       1.69       3.75       9.60      13.35        0.00     0.00   0.890
  4424                      15.00       0.00       0.00       1.69       3.75       9.60      13.35        0.00     0.00   0.890
  4425                      15.00       0.00       0.00       1.69       3.75       9.60      13.35        0.00     0.00   0.890
  4426                      15.00       0.00       0.00       1.69       3.75       9.60      13.35        0.00     0.00   0.890
  4427                      15.00       0.00       0.00       1.69       3.75       9.60      13.35        0.00     0.00   0.890
  4428                      15.00       0.00       0.00       1.69       3.75       9.60      13.35        0.00     0.00   0.890
  4455                      15.00       0.00       0.00       1.69       3.75       9.60      13.35        0.00     0.00   0.890
  4456                      15.00       0.00       0.00       1.69       3.75       9.60      13.35        0.00     0.00   0.890
  4457                      15.00       0.00       0.00       1.69       3.75       9.60      13.35        0.00     0.00   0.890
  4458                      15.00       0.00       0.00       1.69       3.75       9.60      13.35        0.00     0.00   0.890
  4459                      15.00       0.00       0.00       1.69       3.75       9.60      13.35        0.00     0.00   0.890
  4460                      15.00       0.00       0.00       1.69       3.75       9.60      13.35        0.00     0.00   0.890
  4461                      15.00       0.00       0.00       1.69       3.75       9.60      13.35        0.00     0.00   0.890
  4464                      15.00       0.00       0.00       1.69       3.75       9.60      13.35        0.00     0.00   0.890
  4465                      15.00       0.00       0.00       1.69       3.75       9.60      13.35        0.00     0.00   0.890
  4466                      15.00       0.00       0.00       1.69       3.75       9.60      13.35        0.00     0.00   0.890
  4467                      15.00       0.00       0.00       1.69       3.75       9.60      13.35        0.00     0.00   0.890
  4468                      15.00       0.00       0.00       1.69       3.75       9.60      13.35        0.00     0.00   0.890
  4469                      15.00       0.00       0.00       1.69       3.75       9.60      13.35        0.00     0.00   0.890
  4470                      15.00       0.00       0.00       1.69       3.75       9.60      13.35        0.00     0.00   0.890
  4471                      15.00       0.00       0.00       1.69       3.75       9.60      13.35        0.00     0.00   0.890
  4472                      15.00       0.00       0.00       1.69       3.75       9.60      13.35        0.00     0.00   0.890
  4473                      15.00       0.00       0.00       1.69       3.75       9.60      13.35        0.00     0.00   0.890
  4474                      15.00       0.00       0.00       1.69       3.75       9.60      13.35        0.00     0.00   0.890
  4628                      15.00       0.00       0.00       1.69       3.75       9.60      13.35        0.00     0.00   0.890
  4631                      15.00       0.00       0.00       1.69       3.75       9.60      13.35        0.00     0.00   0.890
  4632                      15.00       0.00       0.00       1.69       3.75       9.60      13.35        0.00     0.00   0.890
  4633                      15.00       0.00       0.00       1.69       3.75       9.60      13.35        0.00     0.00   0.890
  4634                      15.00       0.00       0.00       1.69       3.75       9.60      13.35        0.00     0.00   0.890
  4637                      15.00       0.00       0.00       1.69       3.75       9.60      13.35        0.00     0.00   0.890
  4686                      15.00       0.00       0.00       1.69       3.75       9.60      13.35        0.00     0.00   0.890
  4687                      15.00       0.00       0.00       1.69       3.75       9.60      13.35        0.00     0.00   0.890
  4688                      15.00       0.00       0.00       1.69       3.75       9.60      13.35        0.00     0.00   0.890
  5032                      15.00       0.00       0.00       1.69       3.75       9.60      13.35        0.00     0.00   0.890
  5331                      15.00       0.00       0.00       1.69       3.75       9.60      13.35        0.00     0.00   0.890
  5332                      15.00       0.00       0.00       1.69       3.75       9.60      13.35        0.00     0.00   0.890
  5335                      15.00       0.00       0.00       1.69       3.75       9.60      13.35        0.00     0.00   0.890
  5336                      15.00       0.00       0.00       1.69       3.75       9.60      13.35        0.00     0.00   0.890
  5337                      15.00       0.00       0.00       1.69       3.75       9.60      13.35        0.00     0.00   0.890
  5338                      15.00       0.00       0.00       1.69       3.75       9.60      13.35        0.00     0.00   0.890
  5339                      15.00       0.00       0.00       1.69       3.75       9.60      13.35        0.00     0.00   0.890
  5340                      15.00       0.00       0.00       1.69       3.75       9.60      13.35        0.00     0.00   0.890
  5341                      15.00       0.00       0.00       1.69       3.75       9.60      13.35        0.00     0.00   0.890
  5342                      15.00       0.00       0.00       1.69       3.75       9.60      13.35        0.00     0.00   0.890
  5343                      15.00       0.00       0.00       1.69       3.75       9.60      13.35        0.00     0.00   0.890
  5344                      15.00       0.00       0.00       1.69       3.75       9.60      13.35        0.00     0.00   0.890
  5345                      15.00       0.00       0.00       1.69       3.75       9.60      13.35        0.00     0.00   0.890
  5346                      15.00       0.00       0.00       1.69       3.75       9.60      13.35        0.00     0.00   0.890
  5347                      15.00       0.00       0.00       1.69       3.75       9.60      13.35        0.00     0.00   0.890
  5348                      15.00       0.00       0.00       1.69       3.75       9.60      13.35        0.00     0.00   0.890
  5349                      15.00       0.00       0.00       1.69       3.75       9.60      13.35        0.00     0.00   0.890
  5350                      15.00       0.00       0.00       1.69       3.75       9.60      13.35        0.00     0.00   0.890
  6088                      15.00       0.00       0.00       1.69       3.75       9.60      13.35        0.00     0.00   0.890
  7275                      15.00       0.00       0.00       1.69       3.75       9.60      13.35        0.00     0.00   0.890
  9955                      15.00       0.00       0.00       1.69       3.75       9.60      13.35        0.00     0.00   0.890
  9956                      15.00       0.00       0.00       1.69       3.75       9.60      13.35        0.00     0.00   0.890
  
  
  ****************************
  Subcatchment Washoff Summary
  ****************************
  
  ----------------------------------
                                 COD
  Subcatchment                    kg
  ----------------------------------
  2707                         3.490
  2708                         3.490
  2709                         3.490
  2710                         3.490
  2712                         3.490
  2713                         3.490
  2714                         3.490
  2715                         3.490
  2716                         3.490
  2717                         3.490
  2718                         3.490
  2719                         3.490
  2721                         3.490
  2722                         3.490
  2723                         3.490
  2724                         3.490
  2725                         3.490
  2726                         3.490
  2727                         3.490
  2728                         3.490
  2729                         3.490
  2730                         3.490
  2731                         3.490
  2732                         3.490
  2733                         3.490
  2734                         3.490
  2735                         3.490
  2736                         3.490
  2737                         3.490
  2738                         3.490
  2739                         3.490
  2740                         3.490
  2741                         3.490
  2742                         3.490
  2743                         3.490
  2744                         3.490
  2745                         3.490
  2746                         3.490
  2747                         3.490
  2748                         3.490
  2749                         3.490
  2750                         3.490
  2751                         3.490
  2752                         3.490
  2753                         3.490
  2754                         3.490
  2755                         3.490
  2756                         3.490
  2964                         3.490
  2969                         3.490
  2970                         3.490
  2974                         3.490
  2975                         3.490
  2976                         3.490
  2977                         3.490
  2978                         3.490
  2979                         3.490
  2980                         3.490
  2981                         3.490
  2982                         3.490
  2984                         3.490
  2985                         3.490
  3925                         3.490
  3926                         3.490
  3927                         3.490
  3928                         3.490
  3929                         3.490
  3930                         3.490
  3931                         3.490
  3932                         3.490
  3933                         3.490
  3934                         3.490
  3935                         3.490
  3936                         3.490
  3937                         3.490
  3938                         3.490
  3939                         3.490
  3940                         3.490
  3941                         3.490
  3942                         3.490
  3943                         3.490
  3944                         3.490
  3945                         3.490
  3946                         3.490
  3947                         3.490
  3948                         3.490
  3949                         3.490
  3950                         3.490
  3951                         3.490
  3952                         3.490
  3953                         3.490
  3954                         3.490
  3955                         3.490
  3956                         3.490
  4032                         3.490
  4033                         3.490
  4041                         3.490
  4051                         3.490
  4055                         3.490
  4056                         3.490
  4058                         3.490
  4385                         3.490
  4386                         3.490
  4387                         3.490
  4388                         3.490
  4389                         3.490
  4390                         3.490
  4391                         3.490
  4392                         3.490
  4393                         3.490
  4394                         3.490
  4395                         3.490
  4396                         3.490
  4397                         3.490
  4398                         3.490
  4429                         3.490
  4430                         3.490
  4431                         3.490
  4432                         3.490
  4433                         3.490
  4434                         3.490
  4435                         3.490
  4436                         3.490
  4437                         3.490
  4438                         3.490
  4439                         3.490
  4440                         3.490
  4441                         3.490
  4442                         3.490
  4443                         3.490
  4444                         3.490
  4445                         3.490
  4446                         3.490
  4447                         3.490
  4448                         3.490
  4449                         3.490
  4450                         3.490
  4451                         3.490
  4452                         3.490
  4453                         3.490
  4454                         3.490
  4462                         3.490
  4463                         3.490
  4563                         3.490
  4564                         3.490
  4565                         3.490
  4566                         3.490
  4567                         3.490
  4568                         3.490
  4569                         3.490
  4570                         3.490
  4571                         3.490
  4572                         3.490
  4573                         3.490
  4574                         3.490
  4575                         3.490
  4576                         3.490
  4577                         3.490
  4578                         3.490
  4579                         3.490
  4580                         3.490
  4581                         3.490
  4624                         3.490
  4625                         3.490
  4644                         3.490
  4645                         3.490
  4646                         3.490
  4679                         3.490
  4680                         3.490
  4681                         3.490
  4682                         3.490
  4683                         3.490
  4711                         3.490
  4712                         3.490
  4713                         3.490
  4714                         3.490
  4715                         3.490
  4716                         3.490
  4717                         3.490
  4718                         3.490
  4722                         3.490
  4760                         3.490
  4761                         3.490
  4765                         3.490
  4766                         3.490
  4767                         3.490
  4768                         3.490
  4769                         3.490
  4855                         3.490
  4856                         3.490
  5284                         3.490
  5285                         3.490
  5286                         3.490
  5287                         3.490
  5288                         3.490
  5289                         3.490
  5290                         3.490
  5291                         3.490
  5292                         3.490
  5293                         3.490
  5294                         3.490
  5295                         3.490
  5296                         3.490
  5297                         3.490
  5298                         3.490
  5299                         3.490
  5300                         3.490
  5301                         3.490
  5302                         3.490
  5303                         3.490
  5304                         3.490
  5305                         3.490
  5306                         3.490
  5307                         3.490
  5308                         3.490
  5309                         3.490
  5310                         3.490
  5311                         3.490
  5312                         3.490
  5313                         3.490
  5314                         3.490
  5315                         3.490
  5316                         3.490
  5317                         3.490
  5318                         3.490
  5319                         3.490
  5320                         3.490
  5321                         3.490
  5322                         3.490
  5323                         3.490
  5324                         3.490
  5325                         3.490
  5326                         3.490
  5327                         3.490
  5328                         3.490
  5329                         3.490
  5330                         3.490
  5333                         3.490
  5334                         3.490
  6040                         3.490
  6041                         3.490
  6162                         3.490
  7207                         3.490
  7208                         3.490
  7213                         3.490
  7214                         3.490
  7219                         3.490
  7220                         3.490
  7221                         3.490
  7225                         3.490
  7229                         3.490
  7231                         3.490
  7268                         3.490
  7269                         3.490
  7271                         3.490
  7272                         3.490
  7273                         3.490
  7433                         3.490
  7434                         3.490
  7544                         3.490
  7545                         3.490
  8737                         3.490
  8818                         3.490
  9942                         3.490
  9957                         3.490
  4399                         1.053
  4400                         1.053
  4401                         1.053
  4402                         1.053
  4403                         1.053
  4404                         1.053
  4405                         1.053
  4406                         1.053
  4407                         1.053
  4408                         1.053
  4409                         1.053
  4410                         1.053
  4411                         1.053
  4412                         1.053
  4423                         1.053
  4424                         1.053
  4425                         1.053
  4426                         1.053
  4427                         1.053
  4428                         1.053
  4455                         1.053
  4456                         1.053
  4457                         1.053
  4458                         1.053
  4459                         1.053
  4460                         1.053
  4461                         1.053
  4464                         1.053
  4465                         1.053
  4466                         1.053
  4467                         1.053
  4468                         1.053
  4469                         1.053
  4470                         1.053
  4471                         1.053
  4472                         1.053
  4473                         1.053
  4474                         1.053
  4628                         1.053
  4631                         1.053
  4632                         1.053
  4633                         1.053
  4634                         1.053
  4637                         1.053
  4686                         1.053
  4687                         1.053
  4688                         1.053
  5032                         1.053
  5331                         1.053
  5332                         1.053
  5335                         1.053
  5336                         1.053
  5337                         1.053
  5338                         1.053
  5339                         1.053
  5340                         1.053
  5341                         1.053
  5342                         1.053
  5343                         1.053
  5344                         1.053
  5345                         1.053
  5346                         1.053
  5347                         1.053
  5348                         1.053
  5349                         1.053
  5350                         1.053
  6088                         1.053
  7275                         1.053
  9955                         1.053
  9956                         1.053
  ----------------------------------
  System                     998.567
  
  
  ******************
  Node Depth Summary
  ******************
  
  ---------------------------------------------------------------------------------
                                 Average  Maximum  Maximum  Time of Max    Reported
                                   Depth    Depth      HGL   Occurrence   Max Depth
  Node                 Type       Meters   Meters   Meters  days hr:min      Meters
  ---------------------------------------------------------------------------------
  Node_02706           JUNCTION     1.58     1.62    98.46     0  03:00        0.00
  Node_02707           JUNCTION     0.21     0.22    99.66     0  01:48        0.00
  Node_02708           JUNCTION     0.35     0.37   100.12     0  02:00        0.00
  Node_02709           JUNCTION     0.42     0.42   100.06     0  02:00        0.00
  Node_02711           JUNCTION     0.05     0.07    99.98     0  03:00        0.00
  Node_02712           JUNCTION     0.05     0.08    99.98     0  03:00        0.00
  Node_02713           JUNCTION     0.09     0.11    99.96     0  03:00        0.00
  Node_02714           JUNCTION     0.01     0.02   100.42     0  03:00        0.00
  Node_02715           JUNCTION     0.06     0.09    99.89     0  03:00        0.00
  Node_02716           JUNCTION     0.06     0.09    99.81     0  03:00        0.00
  Node_02717           JUNCTION     0.08     0.12    99.76     0  03:00        0.00
  Node_02718           JUNCTION     0.07     0.11    99.71     0  03:00        0.00
<<<<<<< HEAD
  Node_02720           JUNCTION     0.07     0.11    99.68     0  03:00        0.00
=======
<<<<<<< HEAD
  Node_02720           JUNCTION     0.07     0.11    99.68     0  03:00        0.00
=======
  Node_02720           JUNCTION     0.07     0.11    99.68     0  03:01        0.00
>>>>>>> b040755ab93617f94f1ab7a7036927f36e763e5a
>>>>>>> ebd46bdc835ac17077bb70c3b6f6db3a4ee81ecd
  Node_02721           JUNCTION     0.34     0.38    99.63     0  03:00        0.00
  Node_02722           JUNCTION     0.13     0.14   101.94     0  03:00        0.00
  Node_02723           JUNCTION     0.26     0.30    99.60     0  03:00        0.00
  Node_02724           JUNCTION     0.09     0.14    99.55     0  03:00        0.00
  Node_02725           JUNCTION     0.09     0.14    99.50     0  03:00        0.00
  Node_02726           JUNCTION     0.13     0.17    99.43     0  03:01        0.00
  Node_02727           JUNCTION     0.18     0.23    99.36     0  03:00        0.00
  Node_02728           JUNCTION     0.05     0.06   100.14     0  03:00        0.00
  Node_02729           JUNCTION     0.20     0.26    99.32     0  03:00        0.00
  Node_02730           JUNCTION     0.19     0.26    99.29     0  03:00        0.00
<<<<<<< HEAD
  Node_02731           JUNCTION     0.60     0.67    99.26     0  03:00        0.00
  Node_02732           JUNCTION     0.16     0.23    99.25     0  03:00        0.00
  Node_02733           JUNCTION     0.15     0.23    99.23     0  03:00        0.00
  Node_02734           JUNCTION     0.43     0.51    99.22     0  03:00        0.00
  Node_02735           JUNCTION     0.32     0.41    99.22     0  03:00        0.00
  Node_02736           JUNCTION     0.51     0.59    99.20     0  02:59        0.00
=======
<<<<<<< HEAD
  Node_02731           JUNCTION     0.60     0.67    99.26     0  03:00        0.00
  Node_02732           JUNCTION     0.16     0.23    99.25     0  03:00        0.00
=======
  Node_02731           JUNCTION     0.60     0.67    99.26     0  03:01        0.00
  Node_02732           JUNCTION     0.16     0.23    99.25     0  02:59        0.00
>>>>>>> b040755ab93617f94f1ab7a7036927f36e763e5a
  Node_02733           JUNCTION     0.15     0.23    99.23     0  03:00        0.00
  Node_02734           JUNCTION     0.43     0.51    99.22     0  03:00        0.00
  Node_02735           JUNCTION     0.32     0.41    99.22     0  03:00        0.00
  Node_02736           JUNCTION     0.51     0.59    99.20     0  03:00        0.00
>>>>>>> ebd46bdc835ac17077bb70c3b6f6db3a4ee81ecd
  Node_02737           JUNCTION     0.48     0.56    99.18     0  03:00        0.00
  Node_02738           JUNCTION     0.31     0.39    99.16     0  03:00        0.00
  Node_02739           JUNCTION     0.17     0.25    99.12     0  03:00        0.00
  Node_02740           JUNCTION     0.17     0.26    99.10     0  03:00        0.00
  Node_02741           JUNCTION     0.05     0.06    99.35     0  02:00        0.00
  Node_02742           JUNCTION     0.18     0.27    99.07     0  03:00        0.00
  Node_02743           JUNCTION     0.59     0.67    99.04     0  03:00        0.00
  Node_02744           JUNCTION     0.06     0.08    99.42     0  00:00        0.00
  Node_02745           JUNCTION     0.32     0.40    99.02     0  03:00        0.00
  Node_02746           JUNCTION     0.21     0.29    98.98     0  03:00        0.00
  Node_02747           JUNCTION     0.04     0.06   100.41     0  02:00        0.00
  Node_02748           JUNCTION     0.03     0.03   100.49     0  02:00        0.00
  Node_02749           JUNCTION     0.22     0.30    98.94     0  03:00        0.00
  Node_02750           JUNCTION     0.22     0.30    98.91     0  03:00        0.00
  Node_02751           JUNCTION     0.19     0.26    98.86     0  03:01        0.00
  Node_02752           JUNCTION     0.18     0.25    98.79     0  03:01        0.00
  Node_02753           JUNCTION     0.19     0.25    98.73     0  03:01        0.00
  Node_02754           JUNCTION     0.10     0.14    98.45     0  03:00        0.00
  Node_02755           JUNCTION     1.03     1.06    98.46     0  03:00        0.00
  Node_02963           JUNCTION     0.05     0.07    99.98     0  02:00        0.00
  Node_02968           JUNCTION     0.06     0.07   100.19     0  02:00        0.00
  Node_02969           JUNCTION     0.07     0.10    99.98     0  00:00        0.00
  Node_02973           JUNCTION     0.58     0.59    98.48     0  02:00        0.00
<<<<<<< HEAD
  Node_02974           JUNCTION     0.37     0.52    97.65     0  02:51        0.00
  Node_02975           JUNCTION     0.37     0.52    97.66     0  02:51        0.00
  Node_02976           JUNCTION     0.37     0.54    97.73     0  02:51        0.00
  Node_02977           JUNCTION     0.32     0.51    97.84     0  02:50        0.00
  Node_02978           JUNCTION     0.24     0.37    97.90     0  02:50        0.00
  Node_02979           JUNCTION     0.33     0.46    97.58     0  02:51        0.00
  Node_02980           JUNCTION     0.26     0.37    97.46     0  02:51        0.00
  Node_02981           JUNCTION     0.22     0.31    97.26     0  02:52        0.00
  Node_02983           JUNCTION     0.04     0.05   100.17     0  00:00        0.00
  Node_02984           JUNCTION     0.66     0.85    97.83     0  02:50        0.00
=======
<<<<<<< HEAD
  Node_02974           JUNCTION     0.37     0.53    97.65     0  04:11        0.00
  Node_02975           JUNCTION     0.37     0.53    97.66     0  04:11        0.00
  Node_02976           JUNCTION     0.37     0.55    97.74     0  04:11        0.00
  Node_02977           JUNCTION     0.33     0.53    97.86     0  04:10        0.00
  Node_02978           JUNCTION     0.25     0.39    97.92     0  04:10        0.00
  Node_02979           JUNCTION     0.33     0.47    97.58     0  04:11        0.00
  Node_02980           JUNCTION     0.27     0.38    97.46     0  04:11        0.00
  Node_02981           JUNCTION     0.22     0.31    97.26     0  04:11        0.00
  Node_02983           JUNCTION     0.04     0.05   100.17     0  00:00        0.00
  Node_02984           JUNCTION     0.67     0.86    97.84     0  04:10        0.00
=======
  Node_02974           JUNCTION     0.37     0.51    97.64     0  02:48        0.00
  Node_02975           JUNCTION     0.37     0.51    97.65     0  02:48        0.00
  Node_02976           JUNCTION     0.37     0.53    97.72     0  02:48        0.00
  Node_02977           JUNCTION     0.32     0.50    97.83     0  02:47        0.00
  Node_02978           JUNCTION     0.24     0.36    97.89     0  02:47        0.00
  Node_02979           JUNCTION     0.33     0.45    97.57     0  02:48        0.00
  Node_02980           JUNCTION     0.26     0.37    97.45     0  02:48        0.00
  Node_02981           JUNCTION     0.22     0.31    97.26     0  02:49        0.00
  Node_02983           JUNCTION     0.04     0.05   100.17     0  00:00        0.00
  Node_02984           JUNCTION     0.66     0.84    97.82     0  02:47        0.00
>>>>>>> b040755ab93617f94f1ab7a7036927f36e763e5a
>>>>>>> ebd46bdc835ac17077bb70c3b6f6db3a4ee81ecd
  Node_03924           JUNCTION     0.02     0.02   100.85     0  02:00        0.00
  Node_03925           JUNCTION     0.23     0.25   100.62     0  03:00        0.00
  Node_03926           JUNCTION     0.01     0.01   101.48     0  03:00        0.00
  Node_03927           JUNCTION     0.20     0.23   100.61     0  03:00        0.00
  Node_03928           JUNCTION     0.22     0.25   100.59     0  03:00        0.00
  Node_03929           JUNCTION     0.22     0.25   100.55     0  03:00        0.00
  Node_03930           JUNCTION     0.23     0.27   100.52     0  03:00        0.00
  Node_03931           JUNCTION     0.22     0.25   100.50     0  03:00        0.00
  Node_03932           JUNCTION     0.24     0.28   100.44     0  03:00        0.00
  Node_03933           JUNCTION     0.23     0.26   100.38     0  03:00        0.00
  Node_03934           JUNCTION     0.05     0.06   100.92     0  03:00        0.00
  Node_03935           JUNCTION     0.25     0.30   100.28     0  03:00        0.00
  Node_03936           JUNCTION     0.27     0.33   100.26     0  03:00        0.00
  Node_03937           JUNCTION     1.21     1.21   101.37     0  03:00        0.00
<<<<<<< HEAD
  Node_03938           JUNCTION     0.62     2.02   101.21     0  04:15        0.00
  Node_03939           JUNCTION     0.71     2.17   101.21     0  04:15        0.00
  Node_03940           JUNCTION     0.78     2.28   101.21     0  04:15        0.00
  Node_03941           JUNCTION     0.86     2.40   101.21     0  04:15        0.00
  Node_03942           JUNCTION     0.89     2.46   101.21     0  04:15        0.00
  Node_03943           JUNCTION     0.98     2.59   101.20     0  04:15        0.00
  Node_03944           JUNCTION     1.07     2.72   101.20     0  04:15        0.00
  Node_03945           JUNCTION     1.13     2.78   101.20     0  04:15        0.00
  Node_03946           JUNCTION     1.19     2.84   101.19     0  04:15        0.00
  Node_03947           JUNCTION     1.39     2.95   100.84     0  04:15        0.00
  Node_03948           JUNCTION     1.31     2.79   100.64     0  04:15        0.00
  Node_03949           JUNCTION     1.39     2.80   100.50     0  04:15        0.00
  Node_03950           JUNCTION     1.23     2.58   100.35     0  04:15        0.00
  Node_03951           JUNCTION     1.18     2.43   100.12     0  04:15        0.00
  Node_03952           JUNCTION     1.15     2.27    99.86     0  04:15        0.00
  Node_03953           JUNCTION     1.02     2.01    99.58     0  04:15        0.00
  Node_03954           JUNCTION     1.86     2.72    99.30     0  04:15        0.00
  Node_03955           JUNCTION     0.79     1.51    99.00     0  04:15        0.00
  Node_04031           JUNCTION     0.05     0.07   101.30     0  00:00        0.00
  Node_04032           JUNCTION     1.09     2.67   101.03     0  04:15        0.00
  Node_04040           JUNCTION     0.17     1.02   101.56     0  04:16        0.00
=======
<<<<<<< HEAD
  Node_03938           JUNCTION     0.64     2.27   101.46     0  04:15        0.00
  Node_03939           JUNCTION     0.73     2.43   101.46     0  04:15        0.00
  Node_03940           JUNCTION     0.80     2.53   101.46     0  04:14        0.00
  Node_03941           JUNCTION     0.88     2.65   101.46     0  04:15        0.00
  Node_03942           JUNCTION     0.92     2.71   101.46     0  04:15        0.00
  Node_03943           JUNCTION     1.01     2.85   101.46     0  04:15        0.00
  Node_03944           JUNCTION     1.10     2.97   101.45     0  04:15        0.00
  Node_03945           JUNCTION     1.16     3.03   101.45     0  04:15        0.00
  Node_03946           JUNCTION     1.22     3.09   101.45     0  04:15        0.00
  Node_03947           JUNCTION     1.41     3.18   101.07     0  04:15        0.00
  Node_03948           JUNCTION     1.33     2.99   100.84     0  04:15        0.00
  Node_03949           JUNCTION     1.41     3.00   100.70     0  04:15        0.00
  Node_03950           JUNCTION     1.25     2.77   100.54     0  04:15        0.00
  Node_03951           JUNCTION     1.20     2.60   100.29     0  04:15        0.00
  Node_03952           JUNCTION     1.16     2.42   100.01     0  04:15        0.00
  Node_03953           JUNCTION     1.03     2.14    99.71     0  04:15        0.00
  Node_03954           JUNCTION     1.88     2.83    99.41     0  04:14        0.00
  Node_03955           JUNCTION     0.80     1.61    99.10     0  04:14        0.00
  Node_04031           JUNCTION     0.05     0.07   101.30     0  00:00        0.00
  Node_04032           JUNCTION     1.11     2.91   101.26     0  04:15        0.00
  Node_04040           JUNCTION     0.20     1.31   101.85     0  04:15        0.00
=======
  Node_03938           JUNCTION     0.61     2.01   101.21     0  04:15        0.00
  Node_03939           JUNCTION     0.70     2.17   101.21     0  04:15        0.00
  Node_03940           JUNCTION     0.77     2.28   101.21     0  04:15        0.00
  Node_03941           JUNCTION     0.85     2.40   101.21     0  04:15        0.00
  Node_03942           JUNCTION     0.88     2.45   101.20     0  04:15        0.00
  Node_03943           JUNCTION     0.97     2.59   101.20     0  04:15        0.00
  Node_03944           JUNCTION     1.07     2.72   101.20     0  04:15        0.00
  Node_03945           JUNCTION     1.12     2.78   101.20     0  04:15        0.00
  Node_03946           JUNCTION     1.18     2.83   101.19     0  04:15        0.00
  Node_03947           JUNCTION     1.38     2.95   100.84     0  04:15        0.00
  Node_03948           JUNCTION     1.30     2.78   100.63     0  04:15        0.00
  Node_03949           JUNCTION     1.38     2.80   100.50     0  04:15        0.00
  Node_03950           JUNCTION     1.22     2.57   100.34     0  04:15        0.00
  Node_03951           JUNCTION     1.17     2.42   100.11     0  04:15        0.00
  Node_03952           JUNCTION     1.14     2.27    99.86     0  04:15        0.00
  Node_03953           JUNCTION     1.01     2.01    99.58     0  04:15        0.00
  Node_03954           JUNCTION     1.86     2.72    99.30     0  04:15        0.00
  Node_03955           JUNCTION     0.79     1.51    99.00     0  04:15        0.00
  Node_04031           JUNCTION     0.05     0.07   101.30     0  00:00        0.00
  Node_04032           JUNCTION     1.08     2.67   101.02     0  04:15        0.00
  Node_04040           JUNCTION     0.17     1.01   101.56     0  04:16        0.00
>>>>>>> b040755ab93617f94f1ab7a7036927f36e763e5a
>>>>>>> ebd46bdc835ac17077bb70c3b6f6db3a4ee81ecd
  Node_04050           JUNCTION     0.25     0.26   101.22     0  00:00        0.00
  Node_04054           JUNCTION     0.02     0.03   101.17     0  02:00        0.00
  Node_04055           JUNCTION     0.13     0.14   100.96     0  02:00        0.00
  Node_04057           JUNCTION     0.02     0.03   100.34     0  03:00        0.00
<<<<<<< HEAD
  Node_04384           JUNCTION     0.58     0.69    98.27     0  02:47        0.00
  Node_04385           JUNCTION     0.30     0.43    98.34     0  02:47        0.00
  Node_04386           JUNCTION     0.30     0.43    98.37     0  03:06        0.00
  Node_04387           JUNCTION     0.30     0.44    98.40     0  03:06        0.00
  Node_04388           JUNCTION     0.30     0.44    98.45     0  03:05        0.00
[...]
  Link_01799                 903.406
  Link_01800                 915.955
  Link_01801                 424.452
  Link_01802                 872.960
  Link_01803                 897.639
  Link_01804                 774.572
  Link_01805                 769.225
  Link_01806                 763.662
  Link_01807                 758.060
  Link_01808                  10.583
  Link_01809                 742.517
  Link_01810                 733.135
  Link_01811                   3.473
  Link_01812                  48.259
  Link_01813                  39.221
  Link_01814                 708.020
  Link_01815                 701.919
  Link_01816                 690.719
  Link_01817                   5.258
  Link_01818                 663.614
  Link_01819                 649.307
=======
>>>>>>> ebd46bdc835ac17077bb70c3b6f6db3a4ee81ecd
  Link_01766                 106.416
  Link_01767                 161.689
  Link_01768                 165.472
  Link_01769                 169.057
  Link_01770                 172.858
  Link_01771                 176.717
  Link_01772                  19.368
  Link_01773                 200.218
  Link_01774                  26.681
<<<<<<< HEAD
  Link_01775                  51.535
  Link_01776                  48.010
  Link_01777                  44.449
  Link_01778                  41.005
  Link_01779                  37.447
  Link_01780                  33.886
  Link_01781                  30.384
  Link_01782                 244.192
=======
  Link_01775                  51.534
  Link_01776                  48.010
  Link_01777                  44.448
  Link_01778                  40.994
  Link_01779                  37.447
  Link_01780                  33.886
  Link_01781                  30.384
  Link_01782                 244.193
>>>>>>> ebd46bdc835ac17077bb70c3b6f6db3a4ee81ecd
  Link_01783                   7.057
  Link_01784                 255.494
  Link_01785                 260.079
  Link_01786                  57.311
  Link_01787                  28.450
  Link_01788                 350.349
<<<<<<< HEAD
  Link_01789                 355.060
=======
  Link_01789                 355.061
>>>>>>> ebd46bdc835ac17077bb70c3b6f6db3a4ee81ecd
  Link_01790                  12.353
  Link_01791                  10.662
  Link_01792                   8.837
  Link_01793                 388.222
  Link_01794                 392.937
<<<<<<< HEAD
  Link_01795                 397.468
  Link_01796                 401.948
  Link_01797                 406.439
  Link_01798                 875.802
  Link_01799                 869.228
  Link_01800                 881.616
  Link_01801                 424.452
  Link_01802                 839.077
  Link_01803                 863.614
  Link_01804                 740.862
  Link_01805                 735.593
  Link_01806                 730.097
  Link_01807                 724.777
  Link_01808                  10.583
  Link_01809                 709.192
  Link_01810                 700.249
  Link_01811                   3.473
  Link_01812                  48.259
  Link_01813                  39.221
  Link_01814                 676.503
  Link_01815                 670.777
  Link_01816                 659.984
  Link_01817                   5.258
  Link_01818                 633.254
  Link_01819                 619.243
=======
  Link_01795                 397.469
  Link_01796                 401.948
  Link_01797                 406.438
  Link_01798                 881.922
  Link_01799                 875.047
  Link_01800                 887.688
  Link_01801                 424.452
  Link_01802                 844.408
  Link_01803                 869.166
  Link_01804                 745.852
  Link_01805                 740.460
  Link_01806                 734.857
  Link_01807                 729.221
  Link_01808                  10.583
  Link_01809                 713.656
  Link_01810                 704.246
  Link_01811                   3.473
  Link_01812                  48.259
  Link_01813                  39.221
  Link_01814                 680.126
  Link_01815                 674.003
  Link_01816                 662.792
  Link_01817                   5.258
  Link_01818                 635.677
  Link_01819                 621.361
>>>>>>> b040755ab93617f94f1ab7a7036927f36e763e5a
>>>>>>> ebd46bdc835ac17077bb70c3b6f6db3a4ee81ecd
  Link_01820                   8.824
  Link_01821                  21.423
  Link_01822                   4.604
  Link_01823                 128.488
<<<<<<< HEAD
  Link_01824                 127.024
  Link_01825                  39.410
  Link_01826                  40.603
  Link_01827                   1.051
  Link_01828                  42.889
=======
  Link_01824                 127.025
  Link_01825                  39.410
  Link_01826                  40.603
  Link_01827                   1.051
<<<<<<< HEAD
  Link_01828                  42.890
=======
  Link_01828                  42.889
>>>>>>> b040755ab93617f94f1ab7a7036927f36e763e5a
>>>>>>> ebd46bdc835ac17077bb70c3b6f6db3a4ee81ecd
  Link_01829                   4.596
  Link_01830                  48.798
  Link_01831                   1.051
  Link_01832                  51.107
  Link_01833                  52.316
<<<<<<< HEAD
  Link_01834                  54.750
=======
<<<<<<< HEAD
  Link_01834                  54.751
=======
  Link_01834                  54.750
>>>>>>> b040755ab93617f94f1ab7a7036927f36e763e5a
>>>>>>> ebd46bdc835ac17077bb70c3b6f6db3a4ee81ecd
  Link_01835                   1.051
  Link_01836                  29.670
  Link_01837                  18.920
  Link_01838                  19.960
  Link_01839                  28.380
  Link_01840                  27.268
  Link_01841                  26.179
  Link_01842                  22.270
  Link_01843                  20.011
  Link_01844                  18.912
  Link_02074                   7.034
<<<<<<< HEAD
=======
<<<<<<< HEAD
  Link_02075                 119.716
  Link_02076                 132.329
  Link_02077                   9.888
  Link_02078                 146.177
  Link_02079                   8.800
  Link_02080                 158.846
  Link_02081                 162.656
  Link_02082                 166.485
  Link_02083                   8.807
  Link_02084                   7.043
  Link_02085                 469.341
  Link_02086                 460.131
  Link_02087                 456.314
  Link_02088                 450.949
  Link_02089                 444.605
  Link_02090                 422.899
  Link_02091                 418.447
  Link_02092                 413.948
  Link_02093                   7.060
  Link_02094                 396.906
  Link_02095                 392.248
  Link_02096                 357.491
  Link_02097                  14.121
  Link_02098                  15.957
  Link_02099                 352.980
  Link_02100                 348.423
  Link_02101                  12.358
  Link_02102                 326.960
  Link_02103                 309.908
  Link_02104                  14.162
  Link_02105                 254.582
  Link_02106                  10.583
  Link_02107                   3.459
  Link_02108                 243.211
  Link_02109                 239.706
=======
>>>>>>> ebd46bdc835ac17077bb70c3b6f6db3a4ee81ecd
  Link_02075                 119.715
  Link_02076                 132.329
  Link_02077                   9.888
  Link_02078                 146.176
  Link_02079                   8.800
  Link_02080                 158.847
  Link_02081                 162.666
<<<<<<< HEAD
  Link_02082                 166.464
  Link_02083                   8.807
  Link_02084                   7.043
  Link_02085                 439.362
  Link_02086                 430.240
  Link_02087                 426.410
  Link_02088                 421.319
  Link_02089                 416.266
  Link_02090                 394.589
  Link_02091                 390.324
  Link_02092                 385.922
  Link_02093                   7.060
  Link_02094                 369.446
  Link_02095                 364.901
  Link_02096                 330.194
  Link_02097                  14.121
  Link_02098                  15.957
  Link_02099                 325.781
  Link_02100                 321.204
  Link_02101                  12.367
  Link_02102                 299.886
  Link_02103                 282.696
  Link_02104                  14.123
  Link_02105                 229.937
  Link_02106                  10.583
  Link_02107                   3.459
  Link_02108                 219.370
  Link_02109                 215.488
=======
  Link_02082                 166.484
  Link_02083                   8.807
  Link_02084                   7.043
  Link_02085                 440.438
  Link_02086                 431.198
  Link_02087                 427.121
  Link_02088                 422.066
  Link_02089                 417.158
  Link_02090                 395.257
  Link_02091                 390.923
  Link_02092                 386.420
  Link_02093                   7.060
  Link_02094                 369.785
  Link_02095                 365.152
  Link_02096                 330.394
  Link_02097                  14.121
  Link_02098                  15.957
  Link_02099                 325.914
  Link_02100                 321.366
  Link_02101                  12.358
  Link_02102                 299.947
  Link_02103                 282.877
  Link_02104                  14.084
  Link_02105                 230.901
  Link_02106                  10.584
  Link_02107                   3.459
  Link_02108                 221.688
  Link_02109                 217.708
>>>>>>> b040755ab93617f94f1ab7a7036927f36e763e5a
>>>>>>> ebd46bdc835ac17077bb70c3b6f6db3a4ee81ecd
  Link_02110                 186.035
  Link_02111                 124.541
  Link_02112                  12.356
  Link_02113                  93.382
  Link_02114                  22.049
  Link_02115                  20.857
  Link_02116                  19.744
  Link_02117                  18.668
  Link_02118                  17.572
  Link_02123                   4.597
  Link_02124                   5.678
  Link_02125                   6.764
  Link_02126                   7.842
  Link_02127                  16.497
  Link_02128                  15.402
  Link_02129                  14.335
  Link_02130                  13.262
  Link_02131                  12.155
  Link_02132                  11.041
  Link_02133                   9.929
<<<<<<< HEAD
  Link_02134                  94.605
=======
  Link_02134                  94.606
>>>>>>> ebd46bdc835ac17077bb70c3b6f6db3a4ee81ecd
  Link_02135                  95.774
  Link_02136                 101.584
  Link_02137                   4.597
  Link_02138                 113.342
<<<<<<< HEAD
  Link_02139                 112.133
  Link_02140                 110.864
  Link_02141                 109.708
=======
<<<<<<< HEAD
  Link_02139                 112.134
  Link_02140                 110.865
  Link_02141                 109.709
=======
  Link_02139                 112.133
  Link_02140                 110.864
  Link_02141                 109.708
>>>>>>> b040755ab93617f94f1ab7a7036927f36e763e5a
>>>>>>> ebd46bdc835ac17077bb70c3b6f6db3a4ee81ecd
  Link_02142                 108.478
  Link_02143                 102.738
  Link_02383                   3.487
  Link_02384                   6.886
  Link_02385                  10.425
  Link_02386                  21.395
  Link_02387                  35.390
  Link_02388                  39.007
  Link_02389                  21.360
  Link_02390                  42.592
<<<<<<< HEAD
  Link_02391                  67.555
  Link_02392                  24.996
  Link_02393                  96.339
  Link_05459                  30.164
  Link_05460                  75.044
  Link_05461                  98.811
  Link_05462                 231.162
  Link_05463                 383.212
  Link_05464                  14.344
  Link_05496                1312.383
  Link_05662                  24.625
  Link_05663                   5.253
  Link_05664                  45.058
  Link_05665                 440.051
  Link_05677                 358.819
  Link_05678                  14.187
  Link_05720                 834.283
  Link_05721                 694.484
  Link_05722                  12.357
  Link_05723                  70.089
  Link_05725                   8.945
  Link_05726                 443.537
  Link_05727                   5.268
  Link_05728                 374.261
  Link_05729                 304.356
=======
<<<<<<< HEAD
  Link_02391                  67.556
=======
  Link_02391                  67.555
>>>>>>> b040755ab93617f94f1ab7a7036927f36e763e5a
  Link_02392                  24.996
  Link_02393                  96.340
  Link_05459                  30.164
  Link_05460                  75.044
  Link_05461                  98.812
<<<<<<< HEAD
  Link_05462                 231.163
  Link_05463                 383.214
  Link_05464                  14.344
  Link_05496                1346.929
  Link_05662                  24.625
  Link_05663                   5.253
  Link_05664                  45.146
  Link_05665                 443.465
  Link_05677                 362.168
  Link_05678                  14.178
  Link_05720                 868.153
  Link_05721                 726.283
  Link_05722                  12.358
  Link_05723                  70.089
  Link_05725                   8.945
  Link_05726                 472.903
  Link_05727                   5.260
  Link_05728                 402.224
  Link_05729                 331.439
  Link_05730                 184.748
  Link_05731                 125.658
  Link_05732                 123.403
  Link_05742                  21.489
  Link_05743                 100.101
  Link_05744                 170.744
=======
  Link_05462                 231.162
  Link_05463                 383.212
  Link_05464                  14.344
  Link_05496                1318.694
  Link_05662                  24.625
  Link_05663                   5.253
  Link_05664                  44.944
  Link_05665                 438.272
  Link_05677                 357.119
  Link_05678                  14.187
  Link_05720                 839.486
  Link_05721                 698.418
  Link_05722                  12.357
  Link_05723                  70.089
  Link_05725                   8.945
  Link_05726                 445.013
  Link_05727                   5.268
  Link_05728                 374.692
  Link_05729                 304.419
>>>>>>> ebd46bdc835ac17077bb70c3b6f6db3a4ee81ecd
  Link_05730                 184.747
  Link_05731                 125.658
  Link_05732                 123.403
  Link_05742                  21.489
  Link_05743                 100.100
<<<<<<< HEAD
  Link_05744                 170.624
=======
  Link_05744                 170.708
>>>>>>> b040755ab93617f94f1ab7a7036927f36e763e5a
>>>>>>> ebd46bdc835ac17077bb70c3b6f6db3a4ee81ecd
  Link_05752                  17.706
  Link_05753                   2.832
  Link_05754                  21.130
  Link_05791                   4.597
<<<<<<< HEAD
  Link_05812                 268.467
  Link_05813                 169.352
  Link_05814                 117.500
  Link_05815                  91.061
=======
<<<<<<< HEAD
  Link_05812                 271.367
  Link_05813                 171.235
  Link_05814                 118.880
  Link_05815                  92.108
=======
  Link_05812                 267.226
  Link_05813                 168.857
  Link_05814                 117.283
  Link_05815                  90.949
>>>>>>> b040755ab93617f94f1ab7a7036927f36e763e5a
>>>>>>> ebd46bdc835ac17077bb70c3b6f6db3a4ee81ecd
  Link_05816                  12.495
  Link_05817                  18.297
  Link_05818                   9.942
  Link_05983                  19.457
  Link_05984                  15.957
  Link_06039                   1.045
  Link_07220                  58.651
  Link_07221                  62.203
  Link_07222                  79.982
  Link_07230                  83.733
  Link_07231                  87.481
  Link_07233                 169.219
<<<<<<< HEAD
  Link_07234                 172.744
=======
<<<<<<< HEAD
  Link_07234                 172.743
=======
  Link_07234                 172.744
>>>>>>> b040755ab93617f94f1ab7a7036927f36e763e5a
>>>>>>> ebd46bdc835ac17077bb70c3b6f6db3a4ee81ecd
  Link_07235                  77.781
  Link_07270                  21.352
  Link_07271                  24.900
  Link_07274                  12.364
  Link_07277                  28.402
<<<<<<< HEAD
  Link_07278                  31.904
  Link_07295                  35.460
=======
<<<<<<< HEAD
  Link_07278                  31.905
  Link_07295                  35.461
  Link_07296                  39.071
  Link_07297                  55.061
  Link_07303                   7.040
  Link_07306                   7.035
  Link_07321                   9.928
  Link_07464                  17.400
  Link_07578                  21.442
  Link_07579                 303.184
  Link_07580                 277.165
  Link_07687                  15.763
  Link_07865                   9.920
  Link_08891                   8.806
  Link_08912                  30.260
  Link1_to_ChengXi          1406.154
  Link2_to_ChengXi           451.777
  Link3_to_ChengXi           177.136
  Link_to_LaoDongLu          187.247
  Pump_ChengXi1              943.778
  Pump_ChengXi2              624.683
  Pump_ChengXi3              399.333
  Pump_ChengXi4              125.652
  Pump_LaoDongLu1            120.272
  Pump_LaoDongLu2             60.008
  Pump_LaoDongLu3             57.288
  outfallpump               1881.255
  

  Analysis begun on:  Mon Aug 16 03:25:56 2021
  Analysis ended on:  Mon Aug 16 03:25:59 2021
  Total elapsed time: 00:00:03
=======
  Link_07278                  31.904
  Link_07295                  35.461
>>>>>>> ebd46bdc835ac17077bb70c3b6f6db3a4ee81ecd
  Link_07296                  39.070
  Link_07297                  55.060
  Link_07303                   7.040
  Link_07306                   7.035
  Link_07321                   9.928
<<<<<<< HEAD
  Link_07464                  17.406
  Link_07578                  21.442
  Link_07579                 276.993
  Link_07580                 251.217
  Link_07687                  15.753
  Link_07865                   9.920
  Link_08891                   8.806
  Link_08912                  30.260
  Link1_to_ChengXi          1371.070
  Link2_to_ChengXi           448.369
  Link3_to_ChengXi           177.137
  Link_to_LaoDongLu          187.248
  Pump_ChengXi1             1293.904
  Pump_ChengXi2              500.826
  Pump_ChengXi3              128.437
  Pump_ChengXi4              128.437
  Pump_LaoDongLu1            147.640
  Pump_LaoDongLu2             65.507
  Pump_LaoDongLu3              0.000
  outfallpump               1383.166
  

  Analysis begun on:  Mon Aug 16 03:43:45 2021
  Analysis ended on:  Mon Aug 16 03:43:47 2021
  Total elapsed time: 00:00:02
=======
  Link_07464                  17.388
  Link_07578                  21.442
  Link_07579                 277.460
  Link_07580                 251.675
  Link_07687                  15.749
  Link_07865                   9.920
  Link_08891                   8.806
  Link_08912                  30.260
  Link1_to_ChengXi          1378.089
  Link2_to_ChengXi           446.598
  Link3_to_ChengXi           177.137
  Link_to_LaoDongLu          187.248
  Pump_ChengXi1             1133.085
  Pump_ChengXi2              564.736
  Pump_ChengXi3              281.494
  Pump_ChengXi4               77.188
  Pump_LaoDongLu1            173.500
  Pump_LaoDongLu2             41.375
  Pump_LaoDongLu3              0.000
  outfallpump               1629.580
  

  Analysis begun on:  Tue Aug 17 21:44:20 2021
  Analysis ended on:  Tue Aug 17 21:44:22 2021
  Total elapsed time: 00:00:02
>>>>>>> b040755ab93617f94f1ab7a7036927f36e763e5a
>>>>>>> ebd46bdc835ac17077bb70c3b6f6db3a4ee81ecd
