
  EPA STORM WATER MANAGEMENT MODEL - VERSION 5.1 (Build 5.3.0.dev0)
  --------------------------------------------------------------

  WARNING 04: minimum elevation drop used for Conduit Link_01776
  WARNING 04: minimum elevation drop used for Conduit Link_01779
  WARNING 04: minimum elevation drop used for Conduit Link_07234
  WARNING 02: maximum depth increased for Node Node_06087
  
  *********************************************************
  NOTE: The summary statistics displayed in this report are
  based on results found at every computational time step,  
  not just on results from each reporting time step.
  *********************************************************
  
  ****************
  Analysis Options
  ****************
  Flow Units ............... CMS
  Process Models:
    Rainfall/Runoff ........ YES
    RDII ................... NO
    Snowmelt ............... NO
    Groundwater ............ NO
    Flow Routing ........... YES
    Ponding Allowed ........ YES
    Water Quality .......... YES
  Infiltration Method ...... HORTON
  Flow Routing Method ...... DYNWAVE
  Surcharge Method ......... EXTRAN
  Starting Date ............ 01/02/2011 00:00:00
  Ending Date .............. 01/02/2011 06:00:00
  Antecedent Dry Days ...... 0.0
  Report Time Step ......... 00:15:00
  Wet Time Step ............ 00:05:00
  Dry Time Step ............ 01:00:00
  Routing Time Step ........ 60.00 sec
  Variable Time Step ....... YES
  Maximum Trials ........... 8
  Number of Threads ........ 1
  Head Tolerance ........... 0.001500 m
  
  
  **************************        Volume         Depth
  Runoff Quantity Continuity     hectare-m            mm
  **************************     ---------       -------
  Total Precipitation ......         0.286        10.000
  Evaporation Loss .........         0.000         0.000
  Infiltration Loss ........         0.023         0.803
  Surface Runoff ...........         0.268         9.361
  Final Storage ............         0.000         0.009
  Continuity Error (%) .....        -1.729
  
  
  **************************           COD
  Runoff Quality Continuity             kg
  **************************    ----------
  Initial Buildup ..........         0.000
  Surface Buildup ..........         0.000
  Wet Deposition ...........       752.184
  Sweeping Removal .........         0.000
  Infiltration Loss ........        60.369
  BMP Removal ..............         0.000
  Surface Runoff ...........       704.115
  Remaining Buildup ........         0.705
  Continuity Error (%) .....        -1.729
  
  
  **************************        Volume        Volume
  Flow Routing Continuity        hectare-m      10^6 ltr
  **************************     ---------     ---------
  Dry Weather Inflow .......         0.153         1.529
  Wet Weather Inflow .......         0.268         2.677
  Groundwater Inflow .......         0.000         0.000
  RDII Inflow ..............         0.000         0.000
  External Inflow ..........         0.000         0.000
<<<<<<< HEAD
  External Outflow .........         0.426         4.261
  Flooding Loss ............         0.036         0.359
  Evaporation Loss .........         0.000         0.000
  Exfiltration Loss ........         0.000         0.000
  Initial Stored Volume ....         0.077         0.773
  Final Stored Volume ......         0.049         0.494
  Continuity Error (%) .....        -2.706
=======
<<<<<<< HEAD
  External Outflow .........         0.417         4.172
  Flooding Loss ............         0.046         0.456
  Evaporation Loss .........         0.000         0.000
  Exfiltration Loss ........         0.000         0.000
  Initial Stored Volume ....         0.077         0.773
  Final Stored Volume ......         0.047         0.465
  Continuity Error (%) .....        -2.286
=======
  External Outflow .........         0.426         4.259
  Flooding Loss ............         0.032         0.323
  Evaporation Loss .........         0.000         0.000
  Exfiltration Loss ........         0.000         0.000
  Initial Stored Volume ....         0.077         0.773
  Final Stored Volume ......         0.051         0.506
  Continuity Error (%) .....        -2.184
>>>>>>> b040755ab93617f94f1ab7a7036927f36e763e5a
>>>>>>> ebd46bdc835ac17077bb70c3b6f6db3a4ee81ecd
  
  
  **************************           COD
  Quality Routing Continuity            kg
  **************************    ----------
  Dry Weather Inflow .......       845.606
  Wet Weather Inflow .......       704.066
  Groundwater Inflow .......         0.000
  RDII Inflow ..............         0.000
  External Inflow ..........         0.000
<<<<<<< HEAD
  External Outflow .........       932.277
  Flooding Loss ............       102.191
  Exfiltration Loss ........         0.000
  Mass Reacted .............         0.000
  Initial Stored Mass ......       427.257
  Final Stored Mass ........       249.913
  Continuity Error (%) .....        35.032
=======
<<<<<<< HEAD
  External Outflow .........      1198.238
  Flooding Loss ............       133.200
  Exfiltration Loss ........         0.000
  Mass Reacted .............         0.000
  Initial Stored Mass ......       427.257
  Final Stored Mass ........       232.332
  Continuity Error (%) .....        20.899
=======
  External Outflow .........      1139.760
  Flooding Loss ............        91.727
  Exfiltration Loss ........         0.000
  Mass Reacted .............         0.000
  Initial Stored Mass ......       427.257
  Final Stored Mass ........       257.403
  Continuity Error (%) .....        24.687
>>>>>>> b040755ab93617f94f1ab7a7036927f36e763e5a
>>>>>>> ebd46bdc835ac17077bb70c3b6f6db3a4ee81ecd
  
  
  *************************
  Highest Continuity Errors
  *************************
<<<<<<< HEAD
  Node Node_07272 (-55.59%)
  Node Node_07270 (-4.34%)
  Node Node_07267 (-3.94%)
  Node Node_07213 (-3.49%)
  Node Node_07271 (2.60%)
=======
<<<<<<< HEAD
  Node Node_07272 (-49.65%)
  Node Node_07271 (10.42%)
  Node Node_07270 (-6.59%)
  Node Node_07267 (-3.39%)
  Node Node_04574 (-3.32%)
=======
  Node Node_07272 (-60.74%)
  Node Node_07270 (-9.19%)
  Node Node_07271 (6.99%)
  Node Node_07213 (4.63%)
  Node Node_07267 (-3.19%)
>>>>>>> b040755ab93617f94f1ab7a7036927f36e763e5a
>>>>>>> ebd46bdc835ac17077bb70c3b6f6db3a4ee81ecd
  
  
  ***************************
  Time-Step Critical Elements
  ***************************
<<<<<<< HEAD
  Link Link_01778 (93.66%)
  Link Link_01558 (3.61%)
=======
<<<<<<< HEAD
  Link Link_01778 (93.77%)
  Link Link_01558 (3.61%)
=======
  Link Link_01778 (92.96%)
  Link Link_01558 (4.10%)
>>>>>>> b040755ab93617f94f1ab7a7036927f36e763e5a
>>>>>>> ebd46bdc835ac17077bb70c3b6f6db3a4ee81ecd
  
  
  ********************************
  Highest Flow Instability Indexes
  ********************************
<<<<<<< HEAD
  Link Link_01335 (18)
  Link Link_01336 (17)
  Link Link_01323 (16)
  Link Link_01558 (16)
  Link Link_01325 (15)
=======
<<<<<<< HEAD
  Link Link_01558 (18)
  Link Link_01335 (17)
  Link Link_01323 (17)
  Link Link_01336 (16)
  Link Link_01810 (15)
=======
  Link Link_01336 (17)
  Link Link_01558 (17)
  Link Link_01335 (17)
  Link Link_01810 (17)
  Link Link_01323 (16)
>>>>>>> b040755ab93617f94f1ab7a7036927f36e763e5a
>>>>>>> ebd46bdc835ac17077bb70c3b6f6db3a4ee81ecd
  
  
  *************************
  Routing Time Step Summary
  *************************
  Minimum Time Step           :     5.00 sec
  Average Time Step           :     5.00 sec
  Maximum Time Step           :     5.00 sec
  Percent in Steady State     :     0.00
<<<<<<< HEAD
  Average Iterations per Step :     3.08
  Percent Not Converging      :    11.83
=======
<<<<<<< HEAD
  Average Iterations per Step :     3.07
  Percent Not Converging      :    10.93
=======
  Average Iterations per Step :     3.12
  Percent Not Converging      :    10.86
>>>>>>> b040755ab93617f94f1ab7a7036927f36e763e5a
>>>>>>> ebd46bdc835ac17077bb70c3b6f6db3a4ee81ecd
  
  
  ***************************
  Subcatchment Runoff Summary
  ***************************
  
  ------------------------------------------------------------------------------------------------------------------------------
                            Total      Total      Total      Total     Imperv       Perv      Total       Total     Peak  Runoff
                           Precip      Runon       Evap      Infil     Runoff     Runoff     Runoff      Runoff   Runoff   Coeff
  Subcatchment                 mm         mm         mm         mm         mm         mm         mm    10^6 ltr      CMS
  ------------------------------------------------------------------------------------------------------------------------------
  2707                      10.00       0.00       0.00       0.81       2.50       6.85       9.36        0.01     0.01   0.936
  2708                      10.00       0.00       0.00       0.81       2.50       6.85       9.36        0.01     0.01   0.936
  2709                      10.00       0.00       0.00       0.81       2.50       6.85       9.36        0.01     0.01   0.936
  2710                      10.00       0.00       0.00       0.81       2.50       6.85       9.36        0.01     0.01   0.936
  2712                      10.00       0.00       0.00       0.81       2.50       6.85       9.36        0.01     0.01   0.936
  2713                      10.00       0.00       0.00       0.81       2.50       6.85       9.36        0.01     0.01   0.936
  2714                      10.00       0.00       0.00       0.81       2.50       6.85       9.36        0.01     0.01   0.936
  2715                      10.00       0.00       0.00       0.81       2.50       6.85       9.36        0.01     0.01   0.936
  2716                      10.00       0.00       0.00       0.81       2.50       6.85       9.36        0.01     0.01   0.936
  2717                      10.00       0.00       0.00       0.81       2.50       6.85       9.36        0.01     0.01   0.936
  2718                      10.00       0.00       0.00       0.81       2.50       6.85       9.36        0.01     0.01   0.936
  2719                      10.00       0.00       0.00       0.81       2.50       6.85       9.36        0.01     0.01   0.936
  2721                      10.00       0.00       0.00       0.81       2.50       6.85       9.36        0.01     0.01   0.936
  2722                      10.00       0.00       0.00       0.81       2.50       6.85       9.36        0.01     0.01   0.936
  2723                      10.00       0.00       0.00       0.81       2.50       6.85       9.36        0.01     0.01   0.936
  2724                      10.00       0.00       0.00       0.81       2.50       6.85       9.36        0.01     0.01   0.936
  2725                      10.00       0.00       0.00       0.81       2.50       6.85       9.36        0.01     0.01   0.936
  2726                      10.00       0.00       0.00       0.81       2.50       6.85       9.36        0.01     0.01   0.936
  2727                      10.00       0.00       0.00       0.81       2.50       6.85       9.36        0.01     0.01   0.936
  2728                      10.00       0.00       0.00       0.81       2.50       6.85       9.36        0.01     0.01   0.936
  2729                      10.00       0.00       0.00       0.81       2.50       6.85       9.36        0.01     0.01   0.936
  2730                      10.00       0.00       0.00       0.81       2.50       6.85       9.36        0.01     0.01   0.936
  2731                      10.00       0.00       0.00       0.81       2.50       6.85       9.36        0.01     0.01   0.936
  2732                      10.00       0.00       0.00       0.81       2.50       6.85       9.36        0.01     0.01   0.936
  2733                      10.00       0.00       0.00       0.81       2.50       6.85       9.36        0.01     0.01   0.936
  2734                      10.00       0.00       0.00       0.81       2.50       6.85       9.36        0.01     0.01   0.936
  2735                      10.00       0.00       0.00       0.81       2.50       6.85       9.36        0.01     0.01   0.936
  2736                      10.00       0.00       0.00       0.81       2.50       6.85       9.36        0.01     0.01   0.936
  2737                      10.00       0.00       0.00       0.81       2.50       6.85       9.36        0.01     0.01   0.936
  2738                      10.00       0.00       0.00       0.81       2.50       6.85       9.36        0.01     0.01   0.936
  2739                      10.00       0.00       0.00       0.81       2.50       6.85       9.36        0.01     0.01   0.936
  2740                      10.00       0.00       0.00       0.81       2.50       6.85       9.36        0.01     0.01   0.936
  2741                      10.00       0.00       0.00       0.81       2.50       6.85       9.36        0.01     0.01   0.936
  2742                      10.00       0.00       0.00       0.81       2.50       6.85       9.36        0.01     0.01   0.936
  2743                      10.00       0.00       0.00       0.81       2.50       6.85       9.36        0.01     0.01   0.936
  2744                      10.00       0.00       0.00       0.81       2.50       6.85       9.36        0.01     0.01   0.936
  2745                      10.00       0.00       0.00       0.81       2.50       6.85       9.36        0.01     0.01   0.936
  2746                      10.00       0.00       0.00       0.81       2.50       6.85       9.36        0.01     0.01   0.936
  2747                      10.00       0.00       0.00       0.81       2.50       6.85       9.36        0.01     0.01   0.936
  2748                      10.00       0.00       0.00       0.81       2.50       6.85       9.36        0.01     0.01   0.936
  2749                      10.00       0.00       0.00       0.81       2.50       6.85       9.36        0.01     0.01   0.936
  2750                      10.00       0.00       0.00       0.81       2.50       6.85       9.36        0.01     0.01   0.936
  2751                      10.00       0.00       0.00       0.81       2.50       6.85       9.36        0.01     0.01   0.936
  2752                      10.00       0.00       0.00       0.81       2.50       6.85       9.36        0.01     0.01   0.936
  2753                      10.00       0.00       0.00       0.81       2.50       6.85       9.36        0.01     0.01   0.936
  2754                      10.00       0.00       0.00       0.81       2.50       6.85       9.36        0.01     0.01   0.936
  2755                      10.00       0.00       0.00       0.81       2.50       6.85       9.36        0.01     0.01   0.936
  2756                      10.00       0.00       0.00       0.81       2.50       6.85       9.36        0.01     0.01   0.936
  2964                      10.00       0.00       0.00       0.81       2.50       6.85       9.36        0.01     0.01   0.936
  2969                      10.00       0.00       0.00       0.81       2.50       6.85       9.36        0.01     0.01   0.936
  2970                      10.00       0.00       0.00       0.81       2.50       6.85       9.36        0.01     0.01   0.936
  2974                      10.00       0.00       0.00       0.81       2.50       6.85       9.36        0.01     0.01   0.936
  2975                      10.00       0.00       0.00       0.81       2.50       6.85       9.36        0.01     0.01   0.936
  2976                      10.00       0.00       0.00       0.81       2.50       6.85       9.36        0.01     0.01   0.936
  2977                      10.00       0.00       0.00       0.81       2.50       6.85       9.36        0.01     0.01   0.936
  2978                      10.00       0.00       0.00       0.81       2.50       6.85       9.36        0.01     0.01   0.936
  2979                      10.00       0.00       0.00       0.81       2.50       6.85       9.36        0.01     0.01   0.936
  2980                      10.00       0.00       0.00       0.81       2.50       6.85       9.36        0.01     0.01   0.936
  2981                      10.00       0.00       0.00       0.81       2.50       6.85       9.36        0.01     0.01   0.936
  2982                      10.00       0.00       0.00       0.81       2.50       6.85       9.36        0.01     0.01   0.936
  2984                      10.00       0.00       0.00       0.81       2.50       6.85       9.36        0.01     0.01   0.936
  2985                      10.00       0.00       0.00       0.81       2.50       6.85       9.36        0.01     0.01   0.936
  3925                      10.00       0.00       0.00       0.81       2.50       6.85       9.36        0.01     0.01   0.936
  3926                      10.00       0.00       0.00       0.81       2.50       6.85       9.36        0.01     0.01   0.936
  3927                      10.00       0.00       0.00       0.81       2.50       6.85       9.36        0.01     0.01   0.936
  3928                      10.00       0.00       0.00       0.81       2.50       6.85       9.36        0.01     0.01   0.936
  3929                      10.00       0.00       0.00       0.81       2.50       6.85       9.36        0.01     0.01   0.936
  3930                      10.00       0.00       0.00       0.81       2.50       6.85       9.36        0.01     0.01   0.936
  3931                      10.00       0.00       0.00       0.81       2.50       6.85       9.36        0.01     0.01   0.936
  3932                      10.00       0.00       0.00       0.81       2.50       6.85       9.36        0.01     0.01   0.936
  3933                      10.00       0.00       0.00       0.81       2.50       6.85       9.36        0.01     0.01   0.936
  3934                      10.00       0.00       0.00       0.81       2.50       6.85       9.36        0.01     0.01   0.936
  3935                      10.00       0.00       0.00       0.81       2.50       6.85       9.36        0.01     0.01   0.936
  3936                      10.00       0.00       0.00       0.81       2.50       6.85       9.36        0.01     0.01   0.936
  3937                      10.00       0.00       0.00       0.81       2.50       6.85       9.36        0.01     0.01   0.936
  3938                      10.00       0.00       0.00       0.81       2.50       6.85       9.36        0.01     0.01   0.936
  3939                      10.00       0.00       0.00       0.81       2.50       6.85       9.36        0.01     0.01   0.936
  3940                      10.00       0.00       0.00       0.81       2.50       6.85       9.36        0.01     0.01   0.936
  3941                      10.00       0.00       0.00       0.81       2.50       6.85       9.36        0.01     0.01   0.936
  3942                      10.00       0.00       0.00       0.81       2.50       6.85       9.36        0.01     0.01   0.936
  3943                      10.00       0.00       0.00       0.81       2.50       6.85       9.36        0.01     0.01   0.936
  3944                      10.00       0.00       0.00       0.81       2.50       6.85       9.36        0.01     0.01   0.936
  3945                      10.00       0.00       0.00       0.81       2.50       6.85       9.36        0.01     0.01   0.936
  3946                      10.00       0.00       0.00       0.81       2.50       6.85       9.36        0.01     0.01   0.936
  3947                      10.00       0.00       0.00       0.81       2.50       6.85       9.36        0.01     0.01   0.936
  3948                      10.00       0.00       0.00       0.81       2.50       6.85       9.36        0.01     0.01   0.936
  3949                      10.00       0.00       0.00       0.81       2.50       6.85       9.36        0.01     0.01   0.936
  3950                      10.00       0.00       0.00       0.81       2.50       6.85       9.36        0.01     0.01   0.936
  3951                      10.00       0.00       0.00       0.81       2.50       6.85       9.36        0.01     0.01   0.936
  3952                      10.00       0.00       0.00       0.81       2.50       6.85       9.36        0.01     0.01   0.936
  3953                      10.00       0.00       0.00       0.81       2.50       6.85       9.36        0.01     0.01   0.936
  3954                      10.00       0.00       0.00       0.81       2.50       6.85       9.36        0.01     0.01   0.936
  3955                      10.00       0.00       0.00       0.81       2.50       6.85       9.36        0.01     0.01   0.936
  3956                      10.00       0.00       0.00       0.81       2.50       6.85       9.36        0.01     0.01   0.936
  4032                      10.00       0.00       0.00       0.81       2.50       6.85       9.36        0.01     0.01   0.936
  4033                      10.00       0.00       0.00       0.81       2.50       6.85       9.36        0.01     0.01   0.936
  4041                      10.00       0.00       0.00       0.81       2.50       6.85       9.36        0.01     0.01   0.936
  4051                      10.00       0.00       0.00       0.81       2.50       6.85       9.36        0.01     0.01   0.936
  4055                      10.00       0.00       0.00       0.81       2.50       6.85       9.36        0.01     0.01   0.936
  4056                      10.00       0.00       0.00       0.81       2.50       6.85       9.36        0.01     0.01   0.936
  4058                      10.00       0.00       0.00       0.81       2.50       6.85       9.36        0.01     0.01   0.936
  4385                      10.00       0.00       0.00       0.81       2.50       6.85       9.36        0.01     0.01   0.936
  4386                      10.00       0.00       0.00       0.81       2.50       6.85       9.36        0.01     0.01   0.936
  4387                      10.00       0.00       0.00       0.81       2.50       6.85       9.36        0.01     0.01   0.936
  4388                      10.00       0.00       0.00       0.81       2.50       6.85       9.36        0.01     0.01   0.936
  4389                      10.00       0.00       0.00       0.81       2.50       6.85       9.36        0.01     0.01   0.936
  4390                      10.00       0.00       0.00       0.81       2.50       6.85       9.36        0.01     0.01   0.936
  4391                      10.00       0.00       0.00       0.81       2.50       6.85       9.36        0.01     0.01   0.936
  4392                      10.00       0.00       0.00       0.81       2.50       6.85       9.36        0.01     0.01   0.936
  4393                      10.00       0.00       0.00       0.81       2.50       6.85       9.36        0.01     0.01   0.936
  4394                      10.00       0.00       0.00       0.81       2.50       6.85       9.36        0.01     0.01   0.936
  4395                      10.00       0.00       0.00       0.81       2.50       6.85       9.36        0.01     0.01   0.936
  4396                      10.00       0.00       0.00       0.81       2.50       6.85       9.36        0.01     0.01   0.936
  4397                      10.00       0.00       0.00       0.81       2.50       6.85       9.36        0.01     0.01   0.936
  4398                      10.00       0.00       0.00       0.81       2.50       6.85       9.36        0.01     0.01   0.936
  4429                      10.00       0.00       0.00       0.81       2.50       6.85       9.36        0.01     0.01   0.936
  4430                      10.00       0.00       0.00       0.81       2.50       6.85       9.36        0.01     0.01   0.936
  4431                      10.00       0.00       0.00       0.81       2.50       6.85       9.36        0.01     0.01   0.936
  4432                      10.00       0.00       0.00       0.81       2.50       6.85       9.36        0.01     0.01   0.936
  4433                      10.00       0.00       0.00       0.81       2.50       6.85       9.36        0.01     0.01   0.936
  4434                      10.00       0.00       0.00       0.81       2.50       6.85       9.36        0.01     0.01   0.936
  4435                      10.00       0.00       0.00       0.81       2.50       6.85       9.36        0.01     0.01   0.936
  4436                      10.00       0.00       0.00       0.81       2.50       6.85       9.36        0.01     0.01   0.936
  4437                      10.00       0.00       0.00       0.81       2.50       6.85       9.36        0.01     0.01   0.936
  4438                      10.00       0.00       0.00       0.81       2.50       6.85       9.36        0.01     0.01   0.936
  4439                      10.00       0.00       0.00       0.81       2.50       6.85       9.36        0.01     0.01   0.936
  4440                      10.00       0.00       0.00       0.81       2.50       6.85       9.36        0.01     0.01   0.936
  4441                      10.00       0.00       0.00       0.81       2.50       6.85       9.36        0.01     0.01   0.936
  4442                      10.00       0.00       0.00       0.81       2.50       6.85       9.36        0.01     0.01   0.936
  4443                      10.00       0.00       0.00       0.81       2.50       6.85       9.36        0.01     0.01   0.936
  4444                      10.00       0.00       0.00       0.81       2.50       6.85       9.36        0.01     0.01   0.936
  4445                      10.00       0.00       0.00       0.81       2.50       6.85       9.36        0.01     0.01   0.936
  4446                      10.00       0.00       0.00       0.81       2.50       6.85       9.36        0.01     0.01   0.936
  4447                      10.00       0.00       0.00       0.81       2.50       6.85       9.36        0.01     0.01   0.936
  4448                      10.00       0.00       0.00       0.81       2.50       6.85       9.36        0.01     0.01   0.936
  4449                      10.00       0.00       0.00       0.81       2.50       6.85       9.36        0.01     0.01   0.936
  4450                      10.00       0.00       0.00       0.81       2.50       6.85       9.36        0.01     0.01   0.936
  4451                      10.00       0.00       0.00       0.81       2.50       6.85       9.36        0.01     0.01   0.936
  4452                      10.00       0.00       0.00       0.81       2.50       6.85       9.36        0.01     0.01   0.936
  4453                      10.00       0.00       0.00       0.81       2.50       6.85       9.36        0.01     0.01   0.936
  4454                      10.00       0.00       0.00       0.81       2.50       6.85       9.36        0.01     0.01   0.936
  4462                      10.00       0.00       0.00       0.81       2.50       6.85       9.36        0.01     0.01   0.936
  4463                      10.00       0.00       0.00       0.81       2.50       6.85       9.36        0.01     0.01   0.936
  4563                      10.00       0.00       0.00       0.81       2.50       6.85       9.36        0.01     0.01   0.936
  4564                      10.00       0.00       0.00       0.81       2.50       6.85       9.36        0.01     0.01   0.936
  4565                      10.00       0.00       0.00       0.81       2.50       6.85       9.36        0.01     0.01   0.936
  4566                      10.00       0.00       0.00       0.81       2.50       6.85       9.36        0.01     0.01   0.936
  4567                      10.00       0.00       0.00       0.81       2.50       6.85       9.36        0.01     0.01   0.936
  4568                      10.00       0.00       0.00       0.81       2.50       6.85       9.36        0.01     0.01   0.936
  4569                      10.00       0.00       0.00       0.81       2.50       6.85       9.36        0.01     0.01   0.936
  4570                      10.00       0.00       0.00       0.81       2.50       6.85       9.36        0.01     0.01   0.936
  4571                      10.00       0.00       0.00       0.81       2.50       6.85       9.36        0.01     0.01   0.936
  4572                      10.00       0.00       0.00       0.81       2.50       6.85       9.36        0.01     0.01   0.936
  4573                      10.00       0.00       0.00       0.81       2.50       6.85       9.36        0.01     0.01   0.936
  4574                      10.00       0.00       0.00       0.81       2.50       6.85       9.36        0.01     0.01   0.936
  4575                      10.00       0.00       0.00       0.81       2.50       6.85       9.36        0.01     0.01   0.936
  4576                      10.00       0.00       0.00       0.81       2.50       6.85       9.36        0.01     0.01   0.936
  4577                      10.00       0.00       0.00       0.81       2.50       6.85       9.36        0.01     0.01   0.936
  4578                      10.00       0.00       0.00       0.81       2.50       6.85       9.36        0.01     0.01   0.936
  4579                      10.00       0.00       0.00       0.81       2.50       6.85       9.36        0.01     0.01   0.936
  4580                      10.00       0.00       0.00       0.81       2.50       6.85       9.36        0.01     0.01   0.936
  4581                      10.00       0.00       0.00       0.81       2.50       6.85       9.36        0.01     0.01   0.936
  4624                      10.00       0.00       0.00       0.81       2.50       6.85       9.36        0.01     0.01   0.936
  4625                      10.00       0.00       0.00       0.81       2.50       6.85       9.36        0.01     0.01   0.936
  4644                      10.00       0.00       0.00       0.81       2.50       6.85       9.36        0.01     0.01   0.936
  4645                      10.00       0.00       0.00       0.81       2.50       6.85       9.36        0.01     0.01   0.936
  4646                      10.00       0.00       0.00       0.81       2.50       6.85       9.36        0.01     0.01   0.936
  4679                      10.00       0.00       0.00       0.81       2.50       6.85       9.36        0.01     0.01   0.936
  4680                      10.00       0.00       0.00       0.81       2.50       6.85       9.36        0.01     0.01   0.936
  4681                      10.00       0.00       0.00       0.81       2.50       6.85       9.36        0.01     0.01   0.936
  4682                      10.00       0.00       0.00       0.81       2.50       6.85       9.36        0.01     0.01   0.936
  4683                      10.00       0.00       0.00       0.81       2.50       6.85       9.36        0.01     0.01   0.936
  4711                      10.00       0.00       0.00       0.81       2.50       6.85       9.36        0.01     0.01   0.936
  4712                      10.00       0.00       0.00       0.81       2.50       6.85       9.36        0.01     0.01   0.936
  4713                      10.00       0.00       0.00       0.81       2.50       6.85       9.36        0.01     0.01   0.936
  4714                      10.00       0.00       0.00       0.81       2.50       6.85       9.36        0.01     0.01   0.936
  4715                      10.00       0.00       0.00       0.81       2.50       6.85       9.36        0.01     0.01   0.936
  4716                      10.00       0.00       0.00       0.81       2.50       6.85       9.36        0.01     0.01   0.936
  4717                      10.00       0.00       0.00       0.81       2.50       6.85       9.36        0.01     0.01   0.936
  4718                      10.00       0.00       0.00       0.81       2.50       6.85       9.36        0.01     0.01   0.936
  4722                      10.00       0.00       0.00       0.81       2.50       6.85       9.36        0.01     0.01   0.936
  4760                      10.00       0.00       0.00       0.81       2.50       6.85       9.36        0.01     0.01   0.936
  4761                      10.00       0.00       0.00       0.81       2.50       6.85       9.36        0.01     0.01   0.936
  4765                      10.00       0.00       0.00       0.81       2.50       6.85       9.36        0.01     0.01   0.936
  4766                      10.00       0.00       0.00       0.81       2.50       6.85       9.36        0.01     0.01   0.936
  4767                      10.00       0.00       0.00       0.81       2.50       6.85       9.36        0.01     0.01   0.936
  4768                      10.00       0.00       0.00       0.81       2.50       6.85       9.36        0.01     0.01   0.936
  4769                      10.00       0.00       0.00       0.81       2.50       6.85       9.36        0.01     0.01   0.936
  4855                      10.00       0.00       0.00       0.81       2.50       6.85       9.36        0.01     0.01   0.936
  4856                      10.00       0.00       0.00       0.81       2.50       6.85       9.36        0.01     0.01   0.936
  5284                      10.00       0.00       0.00       0.81       2.50       6.85       9.36        0.01     0.01   0.936
  5285                      10.00       0.00       0.00       0.81       2.50       6.85       9.36        0.01     0.01   0.936
  5286                      10.00       0.00       0.00       0.81       2.50       6.85       9.36        0.01     0.01   0.936
  5287                      10.00       0.00       0.00       0.81       2.50       6.85       9.36        0.01     0.01   0.936
  5288                      10.00       0.00       0.00       0.81       2.50       6.85       9.36        0.01     0.01   0.936
  5289                      10.00       0.00       0.00       0.81       2.50       6.85       9.36        0.01     0.01   0.936
  5290                      10.00       0.00       0.00       0.81       2.50       6.85       9.36        0.01     0.01   0.936
  5291                      10.00       0.00       0.00       0.81       2.50       6.85       9.36        0.01     0.01   0.936
  5292                      10.00       0.00       0.00       0.81       2.50       6.85       9.36        0.01     0.01   0.936
  5293                      10.00       0.00       0.00       0.81       2.50       6.85       9.36        0.01     0.01   0.936
  5294                      10.00       0.00       0.00       0.81       2.50       6.85       9.36        0.01     0.01   0.936
  5295                      10.00       0.00       0.00       0.81       2.50       6.85       9.36        0.01     0.01   0.936
  5296                      10.00       0.00       0.00       0.81       2.50       6.85       9.36        0.01     0.01   0.936
  5297                      10.00       0.00       0.00       0.81       2.50       6.85       9.36        0.01     0.01   0.936
  5298                      10.00       0.00       0.00       0.81       2.50       6.85       9.36        0.01     0.01   0.936
  5299                      10.00       0.00       0.00       0.81       2.50       6.85       9.36        0.01     0.01   0.936
  5300                      10.00       0.00       0.00       0.81       2.50       6.85       9.36        0.01     0.01   0.936
  5301                      10.00       0.00       0.00       0.81       2.50       6.85       9.36        0.01     0.01   0.936
  5302                      10.00       0.00       0.00       0.81       2.50       6.85       9.36        0.01     0.01   0.936
  5303                      10.00       0.00       0.00       0.81       2.50       6.85       9.36        0.01     0.01   0.936
  5304                      10.00       0.00       0.00       0.81       2.50       6.85       9.36        0.01     0.01   0.936
  5305                      10.00       0.00       0.00       0.81       2.50       6.85       9.36        0.01     0.01   0.936
  5306                      10.00       0.00       0.00       0.81       2.50       6.85       9.36        0.01     0.01   0.936
  5307                      10.00       0.00       0.00       0.81       2.50       6.85       9.36        0.01     0.01   0.936
  5308                      10.00       0.00       0.00       0.81       2.50       6.85       9.36        0.01     0.01   0.936
  5309                      10.00       0.00       0.00       0.81       2.50       6.85       9.36        0.01     0.01   0.936
  5310                      10.00       0.00       0.00       0.81       2.50       6.85       9.36        0.01     0.01   0.936
  5311                      10.00       0.00       0.00       0.81       2.50       6.85       9.36        0.01     0.01   0.936
  5312                      10.00       0.00       0.00       0.81       2.50       6.85       9.36        0.01     0.01   0.936
  5313                      10.00       0.00       0.00       0.81       2.50       6.85       9.36        0.01     0.01   0.936
  5314                      10.00       0.00       0.00       0.81       2.50       6.85       9.36        0.01     0.01   0.936
  5315                      10.00       0.00       0.00       0.81       2.50       6.85       9.36        0.01     0.01   0.936
  5316                      10.00       0.00       0.00       0.81       2.50       6.85       9.36        0.01     0.01   0.936
  5317                      10.00       0.00       0.00       0.81       2.50       6.85       9.36        0.01     0.01   0.936
  5318                      10.00       0.00       0.00       0.81       2.50       6.85       9.36        0.01     0.01   0.936
  5319                      10.00       0.00       0.00       0.81       2.50       6.85       9.36        0.01     0.01   0.936
  5320                      10.00       0.00       0.00       0.81       2.50       6.85       9.36        0.01     0.01   0.936
  5321                      10.00       0.00       0.00       0.81       2.50       6.85       9.36        0.01     0.01   0.936
  5322                      10.00       0.00       0.00       0.81       2.50       6.85       9.36        0.01     0.01   0.936
  5323                      10.00       0.00       0.00       0.81       2.50       6.85       9.36        0.01     0.01   0.936
  5324                      10.00       0.00       0.00       0.81       2.50       6.85       9.36        0.01     0.01   0.936
  5325                      10.00       0.00       0.00       0.81       2.50       6.85       9.36        0.01     0.01   0.936
  5326                      10.00       0.00       0.00       0.81       2.50       6.85       9.36        0.01     0.01   0.936
  5327                      10.00       0.00       0.00       0.81       2.50       6.85       9.36        0.01     0.01   0.936
  5328                      10.00       0.00       0.00       0.81       2.50       6.85       9.36        0.01     0.01   0.936
  5329                      10.00       0.00       0.00       0.81       2.50       6.85       9.36        0.01     0.01   0.936
  5330                      10.00       0.00       0.00       0.81       2.50       6.85       9.36        0.01     0.01   0.936
  5333                      10.00       0.00       0.00       0.81       2.50       6.85       9.36        0.01     0.01   0.936
  5334                      10.00       0.00       0.00       0.81       2.50       6.85       9.36        0.01     0.01   0.936
  6040                      10.00       0.00       0.00       0.81       2.50       6.85       9.36        0.01     0.01   0.936
  6041                      10.00       0.00       0.00       0.81       2.50       6.85       9.36        0.01     0.01   0.936
  6162                      10.00       0.00       0.00       0.81       2.50       6.85       9.36        0.01     0.01   0.936
  7207                      10.00       0.00       0.00       0.81       2.50       6.85       9.36        0.01     0.01   0.936
  7208                      10.00       0.00       0.00       0.81       2.50       6.85       9.36        0.01     0.01   0.936
  7213                      10.00       0.00       0.00       0.81       2.50       6.85       9.36        0.01     0.01   0.936
  7214                      10.00       0.00       0.00       0.81       2.50       6.85       9.36        0.01     0.01   0.936
  7219                      10.00       0.00       0.00       0.81       2.50       6.85       9.36        0.01     0.01   0.936
  7220                      10.00       0.00       0.00       0.81       2.50       6.85       9.36        0.01     0.01   0.936
  7221                      10.00       0.00       0.00       0.81       2.50       6.85       9.36        0.01     0.01   0.936
  7225                      10.00       0.00       0.00       0.81       2.50       6.85       9.36        0.01     0.01   0.936
  7229                      10.00       0.00       0.00       0.81       2.50       6.85       9.36        0.01     0.01   0.936
  7231                      10.00       0.00       0.00       0.81       2.50       6.85       9.36        0.01     0.01   0.936
  7268                      10.00       0.00       0.00       0.81       2.50       6.85       9.36        0.01     0.01   0.936
  7269                      10.00       0.00       0.00       0.81       2.50       6.85       9.36        0.01     0.01   0.936
  7271                      10.00       0.00       0.00       0.81       2.50       6.85       9.36        0.01     0.01   0.936
  7272                      10.00       0.00       0.00       0.81       2.50       6.85       9.36        0.01     0.01   0.936
  7273                      10.00       0.00       0.00       0.81       2.50       6.85       9.36        0.01     0.01   0.936
  7433                      10.00       0.00       0.00       0.81       2.50       6.85       9.36        0.01     0.01   0.936
  7434                      10.00       0.00       0.00       0.81       2.50       6.85       9.36        0.01     0.01   0.936
  7544                      10.00       0.00       0.00       0.81       2.50       6.85       9.36        0.01     0.01   0.936
  7545                      10.00       0.00       0.00       0.81       2.50       6.85       9.36        0.01     0.01   0.936
  8737                      10.00       0.00       0.00       0.81       2.50       6.85       9.36        0.01     0.01   0.936
  8818                      10.00       0.00       0.00       0.81       2.50       6.85       9.36        0.01     0.01   0.936
  9942                      10.00       0.00       0.00       0.81       2.50       6.85       9.36        0.01     0.01   0.936
  9957                      10.00       0.00       0.00       0.81       2.50       6.85       9.36        0.01     0.01   0.936
  4399                      10.00       0.00       0.00       0.72       2.50       6.92       9.42        0.00     0.00   0.942
  4400                      10.00       0.00       0.00       0.72       2.50       6.92       9.42        0.00     0.00   0.942
  4401                      10.00       0.00       0.00       0.72       2.50       6.92       9.42        0.00     0.00   0.942
  4402                      10.00       0.00       0.00       0.72       2.50       6.92       9.42        0.00     0.00   0.942
  4403                      10.00       0.00       0.00       0.72       2.50       6.92       9.42        0.00     0.00   0.942
  4404                      10.00       0.00       0.00       0.72       2.50       6.92       9.42        0.00     0.00   0.942
  4405                      10.00       0.00       0.00       0.72       2.50       6.92       9.42        0.00     0.00   0.942
  4406                      10.00       0.00       0.00       0.72       2.50       6.92       9.42        0.00     0.00   0.942
  4407                      10.00       0.00       0.00       0.72       2.50       6.92       9.42        0.00     0.00   0.942
  4408                      10.00       0.00       0.00       0.72       2.50       6.92       9.42        0.00     0.00   0.942
  4409                      10.00       0.00       0.00       0.72       2.50       6.92       9.42        0.00     0.00   0.942
  4410                      10.00       0.00       0.00       0.72       2.50       6.92       9.42        0.00     0.00   0.942
  4411                      10.00       0.00       0.00       0.72       2.50       6.92       9.42        0.00     0.00   0.942
  4412                      10.00       0.00       0.00       0.72       2.50       6.92       9.42        0.00     0.00   0.942
  4423                      10.00       0.00       0.00       0.72       2.50       6.92       9.42        0.00     0.00   0.942
  4424                      10.00       0.00       0.00       0.72       2.50       6.92       9.42        0.00     0.00   0.942
  4425                      10.00       0.00       0.00       0.72       2.50       6.92       9.42        0.00     0.00   0.942
  4426                      10.00       0.00       0.00       0.72       2.50       6.92       9.42        0.00     0.00   0.942
  4427                      10.00       0.00       0.00       0.72       2.50       6.92       9.42        0.00     0.00   0.942
  4428                      10.00       0.00       0.00       0.72       2.50       6.92       9.42        0.00     0.00   0.942
  4455                      10.00       0.00       0.00       0.72       2.50       6.92       9.42        0.00     0.00   0.942
  4456                      10.00       0.00       0.00       0.72       2.50       6.92       9.42        0.00     0.00   0.942
  4457                      10.00       0.00       0.00       0.72       2.50       6.92       9.42        0.00     0.00   0.942
  4458                      10.00       0.00       0.00       0.72       2.50       6.92       9.42        0.00     0.00   0.942
  4459                      10.00       0.00       0.00       0.72       2.50       6.92       9.42        0.00     0.00   0.942
  4460                      10.00       0.00       0.00       0.72       2.50       6.92       9.42        0.00     0.00   0.942
  4461                      10.00       0.00       0.00       0.72       2.50       6.92       9.42        0.00     0.00   0.942
  4464                      10.00       0.00       0.00       0.72       2.50       6.92       9.42        0.00     0.00   0.942
  4465                      10.00       0.00       0.00       0.72       2.50       6.92       9.42        0.00     0.00   0.942
  4466                      10.00       0.00       0.00       0.72       2.50       6.92       9.42        0.00     0.00   0.942
  4467                      10.00       0.00       0.00       0.72       2.50       6.92       9.42        0.00     0.00   0.942
  4468                      10.00       0.00       0.00       0.72       2.50       6.92       9.42        0.00     0.00   0.942
  4469                      10.00       0.00       0.00       0.72       2.50       6.92       9.42        0.00     0.00   0.942
  4470                      10.00       0.00       0.00       0.72       2.50       6.92       9.42        0.00     0.00   0.942
  4471                      10.00       0.00       0.00       0.72       2.50       6.92       9.42        0.00     0.00   0.942
  4472                      10.00       0.00       0.00       0.72       2.50       6.92       9.42        0.00     0.00   0.942
  4473                      10.00       0.00       0.00       0.72       2.50       6.92       9.42        0.00     0.00   0.942
  4474                      10.00       0.00       0.00       0.72       2.50       6.92       9.42        0.00     0.00   0.942
  4628                      10.00       0.00       0.00       0.72       2.50       6.92       9.42        0.00     0.00   0.942
  4631                      10.00       0.00       0.00       0.72       2.50       6.92       9.42        0.00     0.00   0.942
  4632                      10.00       0.00       0.00       0.72       2.50       6.92       9.42        0.00     0.00   0.942
  4633                      10.00       0.00       0.00       0.72       2.50       6.92       9.42        0.00     0.00   0.942
  4634                      10.00       0.00       0.00       0.72       2.50       6.92       9.42        0.00     0.00   0.942
  4637                      10.00       0.00       0.00       0.72       2.50       6.92       9.42        0.00     0.00   0.942
  4686                      10.00       0.00       0.00       0.72       2.50       6.92       9.42        0.00     0.00   0.942
  4687                      10.00       0.00       0.00       0.72       2.50       6.92       9.42        0.00     0.00   0.942
  4688                      10.00       0.00       0.00       0.72       2.50       6.92       9.42        0.00     0.00   0.942
  5032                      10.00       0.00       0.00       0.72       2.50       6.92       9.42        0.00     0.00   0.942
  5331                      10.00       0.00       0.00       0.72       2.50       6.92       9.42        0.00     0.00   0.942
  5332                      10.00       0.00       0.00       0.72       2.50       6.92       9.42        0.00     0.00   0.942
  5335                      10.00       0.00       0.00       0.72       2.50       6.92       9.42        0.00     0.00   0.942
  5336                      10.00       0.00       0.00       0.72       2.50       6.92       9.42        0.00     0.00   0.942
  5337                      10.00       0.00       0.00       0.72       2.50       6.92       9.42        0.00     0.00   0.942
  5338                      10.00       0.00       0.00       0.72       2.50       6.92       9.42        0.00     0.00   0.942
  5339                      10.00       0.00       0.00       0.72       2.50       6.92       9.42        0.00     0.00   0.942
  5340                      10.00       0.00       0.00       0.72       2.50       6.92       9.42        0.00     0.00   0.942
  5341                      10.00       0.00       0.00       0.72       2.50       6.92       9.42        0.00     0.00   0.942
  5342                      10.00       0.00       0.00       0.72       2.50       6.92       9.42        0.00     0.00   0.942
  5343                      10.00       0.00       0.00       0.72       2.50       6.92       9.42        0.00     0.00   0.942
  5344                      10.00       0.00       0.00       0.72       2.50       6.92       9.42        0.00     0.00   0.942
  5345                      10.00       0.00       0.00       0.72       2.50       6.92       9.42        0.00     0.00   0.942
  5346                      10.00       0.00       0.00       0.72       2.50       6.92       9.42        0.00     0.00   0.942
  5347                      10.00       0.00       0.00       0.72       2.50       6.92       9.42        0.00     0.00   0.942
  5348                      10.00       0.00       0.00       0.72       2.50       6.92       9.42        0.00     0.00   0.942
  5349                      10.00       0.00       0.00       0.72       2.50       6.92       9.42        0.00     0.00   0.942
  5350                      10.00       0.00       0.00       0.72       2.50       6.92       9.42        0.00     0.00   0.942
  6088                      10.00       0.00       0.00       0.72       2.50       6.92       9.42        0.00     0.00   0.942
  7275                      10.00       0.00       0.00       0.72       2.50       6.92       9.42        0.00     0.00   0.942
  9955                      10.00       0.00       0.00       0.72       2.50       6.92       9.42        0.00     0.00   0.942
  9956                      10.00       0.00       0.00       0.72       2.50       6.92       9.42        0.00     0.00   0.942
  
  
  ****************************
  Subcatchment Washoff Summary
  ****************************
  
  ----------------------------------
                                 COD
  Subcatchment                    kg
  ----------------------------------
  2707                         2.461
  2708                         2.461
  2709                         2.461
  2710                         2.461
  2712                         2.461
  2713                         2.461
  2714                         2.461
  2715                         2.461
  2716                         2.461
  2717                         2.461
  2718                         2.461
  2719                         2.461
  2721                         2.461
  2722                         2.461
  2723                         2.461
  2724                         2.461
  2725                         2.461
  2726                         2.461
  2727                         2.461
  2728                         2.461
  2729                         2.461
  2730                         2.461
  2731                         2.461
  2732                         2.461
  2733                         2.461
  2734                         2.461
  2735                         2.461
  2736                         2.461
  2737                         2.461
  2738                         2.461
  2739                         2.461
  2740                         2.461
  2741                         2.461
  2742                         2.461
  2743                         2.461
  2744                         2.461
  2745                         2.461
  2746                         2.461
  2747                         2.461
  2748                         2.461
  2749                         2.461
  2750                         2.461
  2751                         2.461
  2752                         2.461
  2753                         2.461
  2754                         2.461
  2755                         2.461
  2756                         2.461
  2964                         2.461
  2969                         2.461
  2970                         2.461
  2974                         2.461
  2975                         2.461
  2976                         2.461
  2977                         2.461
  2978                         2.461
  2979                         2.461
  2980                         2.461
  2981                         2.461
  2982                         2.461
  2984                         2.461
  2985                         2.461
  3925                         2.461
  3926                         2.461
  3927                         2.461
  3928                         2.461
  3929                         2.461
  3930                         2.461
  3931                         2.461
  3932                         2.461
  3933                         2.461
  3934                         2.461
  3935                         2.461
  3936                         2.461
  3937                         2.461
  3938                         2.461
  3939                         2.461
  3940                         2.461
  3941                         2.461
  3942                         2.461
  3943                         2.461
  3944                         2.461
  3945                         2.461
  3946                         2.461
  3947                         2.461
  3948                         2.461
  3949                         2.461
  3950                         2.461
  3951                         2.461
  3952                         2.461
  3953                         2.461
  3954                         2.461
  3955                         2.461
  3956                         2.461
  4032                         2.461
  4033                         2.461
  4041                         2.461
  4051                         2.461
  4055                         2.461
  4056                         2.461
  4058                         2.461
  4385                         2.461
  4386                         2.461
  4387                         2.461
  4388                         2.461
  4389                         2.461
  4390                         2.461
  4391                         2.461
  4392                         2.461
  4393                         2.461
  4394                         2.461
  4395                         2.461
  4396                         2.461
  4397                         2.461
  4398                         2.461
  4429                         2.461
  4430                         2.461
  4431                         2.461
  4432                         2.461
  4433                         2.461
  4434                         2.461
  4435                         2.461
  4436                         2.461
  4437                         2.461
  4438                         2.461
  4439                         2.461
  4440                         2.461
  4441                         2.461
  4442                         2.461
  4443                         2.461
  4444                         2.461
  4445                         2.461
  4446                         2.461
  4447                         2.461
  4448                         2.461
  4449                         2.461
  4450                         2.461
  4451                         2.461
  4452                         2.461
  4453                         2.461
  4454                         2.461
  4462                         2.461
  4463                         2.461
  4563                         2.461
  4564                         2.461
  4565                         2.461
  4566                         2.461
  4567                         2.461
  4568                         2.461
  4569                         2.461
  4570                         2.461
  4571                         2.461
  4572                         2.461
  4573                         2.461
  4574                         2.461
  4575                         2.461
  4576                         2.461
  4577                         2.461
  4578                         2.461
  4579                         2.461
  4580                         2.461
  4581                         2.461
  4624                         2.461
  4625                         2.461
  4644                         2.461
  4645                         2.461
  4646                         2.461
  4679                         2.461
  4680                         2.461
  4681                         2.461
  4682                         2.461
  4683                         2.461
  4711                         2.461
  4712                         2.461
  4713                         2.461
  4714                         2.461
  4715                         2.461
  4716                         2.461
  4717                         2.461
  4718                         2.461
  4722                         2.461
  4760                         2.461
  4761                         2.461
  4765                         2.461
  4766                         2.461
  4767                         2.461
  4768                         2.461
  4769                         2.461
  4855                         2.461
  4856                         2.461
  5284                         2.461
  5285                         2.461
  5286                         2.461
  5287                         2.461
  5288                         2.461
  5289                         2.461
  5290                         2.461
  5291                         2.461
  5292                         2.461
  5293                         2.461
  5294                         2.461
  5295                         2.461
  5296                         2.461
  5297                         2.461
  5298                         2.461
  5299                         2.461
  5300                         2.461
  5301                         2.461
  5302                         2.461
  5303                         2.461
  5304                         2.461
  5305                         2.461
  5306                         2.461
  5307                         2.461
  5308                         2.461
  5309                         2.461
  5310                         2.461
  5311                         2.461
  5312                         2.461
  5313                         2.461
  5314                         2.461
  5315                         2.461
  5316                         2.461
  5317                         2.461
  5318                         2.461
  5319                         2.461
  5320                         2.461
  5321                         2.461
  5322                         2.461
  5323                         2.461
  5324                         2.461
  5325                         2.461
  5326                         2.461
  5327                         2.461
  5328                         2.461
  5329                         2.461
  5330                         2.461
  5333                         2.461
  5334                         2.461
  6040                         2.461
  6041                         2.461
  6162                         2.461
  7207                         2.461
  7208                         2.461
  7213                         2.461
  7214                         2.461
  7219                         2.461
  7220                         2.461
  7221                         2.461
  7225                         2.461
  7229                         2.461
  7231                         2.461
  7268                         2.461
  7269                         2.461
  7271                         2.461
  7272                         2.461
  7273                         2.461
  7433                         2.461
  7434                         2.461
  7544                         2.461
  7545                         2.461
  8737                         2.461
  8818                         2.461
  9942                         2.461
  9957                         2.461
  4399                         0.744
  4400                         0.744
  4401                         0.744
  4402                         0.744
  4403                         0.744
  4404                         0.744
  4405                         0.744
  4406                         0.744
  4407                         0.744
  4408                         0.744
  4409                         0.744
  4410                         0.744
  4411                         0.744
  4412                         0.744
  4423                         0.744
  4424                         0.744
  4425                         0.744
  4426                         0.744
  4427                         0.744
  4428                         0.744
  4455                         0.744
  4456                         0.744
  4457                         0.744
  4458                         0.744
  4459                         0.744
  4460                         0.744
  4461                         0.744
  4464                         0.744
  4465                         0.744
  4466                         0.744
  4467                         0.744
  4468                         0.744
  4469                         0.744
  4470                         0.744
  4471                         0.744
  4472                         0.744
  4473                         0.744
  4474                         0.744
  4628                         0.744
  4631                         0.744
  4632                         0.744
  4633                         0.744
  4634                         0.744
  4637                         0.744
  4686                         0.744
  4687                         0.744
  4688                         0.744
  5032                         0.744
  5331                         0.744
  5332                         0.744
  5335                         0.744
  5336                         0.744
  5337                         0.744
  5338                         0.744
  5339                         0.744
  5340                         0.744
  5341                         0.744
  5342                         0.744
  5343                         0.744
  5344                         0.744
  5345                         0.744
  5346                         0.744
  5347                         0.744
  5348                         0.744
  5349                         0.744
  5350                         0.744
  6088                         0.744
  7275                         0.744
  9955                         0.744
  9956                         0.744
  ----------------------------------
  System                     704.115
  
  
  ******************
  Node Depth Summary
  ******************
  
  ---------------------------------------------------------------------------------
                                 Average  Maximum  Maximum  Time of Max    Reported
                                   Depth    Depth      HGL   Occurrence   Max Depth
  Node                 Type       Meters   Meters   Meters  days hr:min      Meters
  ---------------------------------------------------------------------------------
<<<<<<< HEAD
  Node_02706           JUNCTION     1.58     2.15    98.99     0  01:46        0.00
  Node_02707           JUNCTION     0.21     0.33    99.77     0  01:47        0.00
=======
<<<<<<< HEAD
  Node_02706           JUNCTION     1.58     2.17    99.01     0  01:46        0.00
=======
  Node_02706           JUNCTION     1.58     2.08    98.92     0  01:48        0.00
>>>>>>> b040755ab93617f94f1ab7a7036927f36e763e5a
  Node_02707           JUNCTION     0.21     0.33    99.76     0  01:47        0.00
>>>>>>> ebd46bdc835ac17077bb70c3b6f6db3a4ee81ecd
  Node_02708           JUNCTION     0.34     0.40   100.16     0  01:45        0.00
  Node_02709           JUNCTION     0.41     0.45   100.08     0  01:45        0.00
  Node_02711           JUNCTION     0.03     0.15   100.06     0  01:45        0.00
  Node_02712           JUNCTION     0.03     0.16   100.06     0  01:45        0.00
  Node_02713           JUNCTION     0.07     0.20   100.05     0  01:45        0.00
  Node_02714           JUNCTION     0.01     0.04   100.43     0  01:45        0.00
  Node_02715           JUNCTION     0.04     0.17    99.98     0  01:45        0.00
  Node_02716           JUNCTION     0.04     0.19    99.91     0  01:45        0.00
  Node_02717           JUNCTION     0.06     0.24    99.88     0  01:45        0.00
  Node_02718           JUNCTION     0.05     0.22    99.82     0  01:45        0.00
  Node_02720           JUNCTION     0.05     0.24    99.80     0  01:45        0.00
<<<<<<< HEAD
  Node_02721           JUNCTION     0.32     0.53    99.78     0  01:47        0.00
  Node_02722           JUNCTION     0.12     0.17   101.97     0  01:45        0.00
  Node_02723           JUNCTION     0.24     0.47    99.76     0  01:47        0.00
  Node_02724           JUNCTION     0.06     0.33    99.75     0  01:47        0.00
  Node_02725           JUNCTION     0.06     0.37    99.74     0  01:47        0.00
  Node_02726           JUNCTION     0.11     0.46    99.73     0  01:47        0.00
  Node_02727           JUNCTION     0.16     0.59    99.72     0  01:46        0.00
  Node_02728           JUNCTION     0.04     0.08   100.16     0  01:45        0.00
  Node_02729           JUNCTION     0.18     0.65    99.71     0  01:46        0.00
  Node_02730           JUNCTION     0.17     0.67    99.70     0  01:45        0.00
  Node_02731           JUNCTION     0.57     1.14    99.73     0  01:51        0.00
  Node_02732           JUNCTION     0.13     0.68    99.70     0  01:51        0.00
  Node_02733           JUNCTION     0.12     0.69    99.69     0  01:51        0.00
  Node_02734           JUNCTION     0.40     1.01    99.72     0  01:51        0.00
  Node_02735           JUNCTION     0.29     0.93    99.74     0  01:51        0.00
  Node_02736           JUNCTION     0.48     1.03    99.64     0  01:45        0.00
  Node_02737           JUNCTION     0.45     1.00    99.62     0  01:45        0.00
  Node_02738           JUNCTION     0.28     0.82    99.59     0  01:46        0.00
  Node_02739           JUNCTION     0.14     0.68    99.55     0  01:46        0.00
  Node_02740           JUNCTION     0.14     0.68    99.52     0  01:46        0.00
  Node_02741           JUNCTION     0.04     0.22    99.52     0  01:46        0.00
  Node_02742           JUNCTION     0.15     0.68    99.49     0  01:47        0.00
  Node_02743           JUNCTION     0.56     1.06    99.43     0  01:46        0.00
  Node_02744           JUNCTION     0.05     0.10    99.44     0  01:46        0.00
  Node_02745           JUNCTION     0.28     0.78    99.40     0  01:47        0.00
  Node_02746           JUNCTION     0.17     0.65    99.34     0  01:47        0.00
  Node_02747           JUNCTION     0.04     0.09   100.44     0  01:45        0.00
  Node_02748           JUNCTION     0.02     0.06   100.51     0  01:45        0.00
  Node_02749           JUNCTION     0.18     0.62    99.26     0  01:47        0.00
  Node_02750           JUNCTION     0.19     0.59    99.20     0  01:47        0.00
  Node_02751           JUNCTION     0.16     0.55    99.15     0  01:47        0.00
  Node_02752           JUNCTION     0.15     0.55    99.09     0  01:47        0.00
  Node_02753           JUNCTION     0.16     0.56    99.04     0  01:47        0.00
  Node_02754           JUNCTION     0.10     0.67    98.99     0  01:46        0.00
  Node_02755           JUNCTION     1.02     1.60    98.99     0  01:46        0.00
  Node_02963           JUNCTION     0.04     0.11   100.02     0  01:45        0.00
  Node_02968           JUNCTION     0.05     0.10   100.22     0  01:45        0.00
  Node_02969           JUNCTION     0.06     0.10    99.98     0  00:00        0.00
  Node_02973           JUNCTION     0.60     1.10    98.99     0  01:46        0.00
  Node_02974           JUNCTION     0.34     1.09    98.22     0  01:46        0.00
  Node_02975           JUNCTION     0.34     1.12    98.25     0  01:46        0.00
  Node_02976           JUNCTION     0.35     1.36    98.55     0  01:46        0.00
  Node_02977           JUNCTION     0.33     1.69    99.02     0  01:46        0.00
  Node_02978           JUNCTION     0.30     1.66    99.19     0  01:46        0.00
  Node_02979           JUNCTION     0.30     0.89    98.01     0  01:46        0.00
  Node_02980           JUNCTION     0.23     0.66    97.74     0  01:46        0.00
  Node_02981           JUNCTION     0.19     0.51    97.46     0  01:46        0.00
  Node_02983           JUNCTION     0.04     0.06   100.18     0  01:45        0.00
  Node_02984           JUNCTION     0.67     1.99    98.97     0  01:46        0.00
=======
  Node_02721           JUNCTION     0.32     0.53    99.77     0  01:47        0.00
  Node_02722           JUNCTION     0.12     0.17   101.97     0  01:45        0.00
<<<<<<< HEAD
  Node_02723           JUNCTION     0.24     0.47    99.76     0  01:47        0.00
  Node_02724           JUNCTION     0.06     0.33    99.75     0  01:47        0.00
  Node_02725           JUNCTION     0.06     0.37    99.74     0  01:47        0.00
  Node_02726           JUNCTION     0.11     0.46    99.72     0  01:47        0.00
  Node_02727           JUNCTION     0.16     0.59    99.72     0  01:47        0.00
  Node_02728           JUNCTION     0.04     0.08   100.16     0  01:45        0.00
  Node_02729           JUNCTION     0.18     0.65    99.71     0  01:47        0.00
  Node_02730           JUNCTION     0.17     0.67    99.70     0  01:46        0.00
  Node_02731           JUNCTION     0.57     1.11    99.70     0  01:52        0.00
  Node_02732           JUNCTION     0.13     0.71    99.73     0  01:52        0.00
  Node_02733           JUNCTION     0.12     0.74    99.75     0  01:52        0.00
  Node_02734           JUNCTION     0.40     0.99    99.70     0  01:52        0.00
  Node_02735           JUNCTION     0.29     0.98    99.79     0  01:52        0.00
  Node_02736           JUNCTION     0.48     1.06    99.67     0  01:52        0.00
  Node_02737           JUNCTION     0.45     1.01    99.62     0  01:46        0.00
  Node_02738           JUNCTION     0.28     0.82    99.59     0  01:46        0.00
  Node_02739           JUNCTION     0.14     0.69    99.55     0  01:46        0.00
  Node_02740           JUNCTION     0.14     0.69    99.53     0  01:46        0.00
  Node_02741           JUNCTION     0.04     0.23    99.53     0  01:47        0.00
  Node_02742           JUNCTION     0.15     0.69    99.50     0  01:46        0.00
  Node_02743           JUNCTION     0.56     1.08    99.45     0  01:47        0.00
  Node_02744           JUNCTION     0.05     0.11    99.45     0  01:47        0.00
  Node_02745           JUNCTION     0.29     0.80    99.42     0  01:47        0.00
  Node_02746           JUNCTION     0.18     0.67    99.36     0  01:47        0.00
  Node_02747           JUNCTION     0.04     0.09   100.44     0  01:45        0.00
  Node_02748           JUNCTION     0.02     0.06   100.51     0  01:45        0.00
  Node_02749           JUNCTION     0.18     0.64    99.28     0  01:47        0.00
  Node_02750           JUNCTION     0.19     0.61    99.22     0  01:47        0.00
  Node_02751           JUNCTION     0.16     0.57    99.16     0  01:47        0.00
  Node_02752           JUNCTION     0.15     0.56    99.11     0  01:46        0.00
  Node_02753           JUNCTION     0.16     0.58    99.05     0  01:47        0.00
  Node_02754           JUNCTION     0.10     0.69    99.00     0  01:47        0.00
  Node_02755           JUNCTION     1.03     1.61    99.01     0  01:46        0.00
  Node_02963           JUNCTION     0.04     0.11   100.02     0  01:45        0.00
  Node_02968           JUNCTION     0.05     0.10   100.22     0  01:45        0.00
  Node_02969           JUNCTION     0.06     0.10    99.98     0  00:00        0.00
  Node_02973           JUNCTION     0.60     1.12    99.01     0  01:47        0.00
  Node_02974           JUNCTION     0.34     1.10    98.23     0  01:45        0.00
  Node_02975           JUNCTION     0.34     1.13    98.26     0  01:45        0.00
  Node_02976           JUNCTION     0.36     1.38    98.57     0  01:46        0.00
  Node_02977           JUNCTION     0.34     1.71    99.04     0  01:47        0.00
  Node_02978           JUNCTION     0.31     1.67    99.20     0  01:46        0.00
  Node_02979           JUNCTION     0.30     0.90    98.02     0  01:46        0.00
  Node_02980           JUNCTION     0.23     0.66    97.75     0  01:45        0.00
  Node_02981           JUNCTION     0.19     0.52    97.47     0  01:45        0.00
  Node_02983           JUNCTION     0.04     0.06   100.18     0  01:45        0.00
  Node_02984           JUNCTION     0.67     2.00    98.98     0  01:46        0.00
>>>>>>> ebd46bdc835ac17077bb70c3b6f6db3a4ee81ecd
  Node_03924           JUNCTION     0.03     0.66   101.48     0  01:45        0.00
  Node_03925           JUNCTION     0.25     1.17   101.54     0  01:45        0.00
  Node_03926           JUNCTION     0.01     0.07   101.54     0  01:45        0.00
  Node_03927           JUNCTION     0.23     1.16   101.54     0  01:45        0.00
<<<<<<< HEAD
  Node_03928           JUNCTION     0.24     1.19   101.54     0  01:45        0.00
  Node_03929           JUNCTION     0.24     1.23   101.53     0  01:45        0.00
  Node_03930           JUNCTION     0.25     1.28   101.53     0  01:45        0.00
  Node_03931           JUNCTION     0.24     1.28   101.52     0  01:44        0.00
  Node_03932           JUNCTION     0.26     1.35   101.51     0  01:45        0.00
  Node_03933           JUNCTION     0.26     1.37   101.49     0  01:45        0.00
  Node_03934           JUNCTION     0.06     0.63   101.49     0  01:45        0.00
  Node_03935           JUNCTION     0.29     1.48   101.46     0  01:44        0.00
  Node_03936           JUNCTION     0.30     1.50   101.43     0  01:45        0.00
  Node_03937           JUNCTION     1.21     1.22   101.39     0  01:45        0.00
=======
  Node_03928           JUNCTION     0.24     1.20   101.54     0  01:45        0.00
  Node_03929           JUNCTION     0.24     1.23   101.54     0  01:45        0.00
  Node_03930           JUNCTION     0.25     1.28   101.53     0  01:45        0.00
  Node_03931           JUNCTION     0.24     1.28   101.52     0  01:45        0.00
  Node_03932           JUNCTION     0.26     1.36   101.52     0  01:45        0.00
  Node_03933           JUNCTION     0.25     1.37   101.49     0  01:44        0.00
  Node_03934           JUNCTION     0.06     0.64   101.50     0  01:45        0.00
  Node_03935           JUNCTION     0.28     1.49   101.46     0  01:45        0.00
  Node_03936           JUNCTION     0.29     1.50   101.43     0  01:45        0.00
  Node_03937           JUNCTION     1.21     1.23   101.39     0  01:45        0.00
  Node_03938           JUNCTION     0.34     3.13   102.32     0  01:32        0.00
  Node_03939           JUNCTION     0.38     3.27   102.31     0  01:32        0.00
  Node_03940           JUNCTION     0.41     3.37   102.30     0  01:32        0.00
  Node_03941           JUNCTION     0.46     3.46   102.27     0  01:32        0.00
  Node_03942           JUNCTION     0.47     3.49   102.24     0  01:32        0.00
  Node_03943           JUNCTION     0.51     3.58   102.19     0  01:32        0.00
  Node_03944           JUNCTION     0.56     3.69   102.17     0  01:32        0.00
  Node_03945           JUNCTION     0.60     3.77   102.19     0  01:33        0.00
  Node_03946           JUNCTION     0.66     3.85   102.20     0  01:33        0.00
  Node_03947           JUNCTION     0.84     4.13   102.02     0  01:33        0.00
  Node_03948           JUNCTION     0.79     4.01   101.86     0  01:33        0.00
  Node_03949           JUNCTION     0.88     4.05   101.75     0  01:33        0.00
  Node_03950           JUNCTION     0.75     3.84   101.61     0  01:43        0.00
  Node_03951           JUNCTION     0.73     3.69   101.38     0  01:44        0.00
  Node_03952           JUNCTION     0.73     3.51   101.10     0  01:43        0.00
  Node_03953           JUNCTION     0.65     3.19   100.77     0  01:44        0.00
  Node_03954           JUNCTION     1.54     3.79   100.37     0  01:44        0.00
  Node_03955           JUNCTION     0.49     2.42    99.91     0  01:43        0.00
  Node_04031           JUNCTION     0.09     0.91   102.14     0  01:33        0.00
  Node_04032           JUNCTION     0.58     3.78   102.13     0  01:33        0.00
  Node_04040           JUNCTION     0.15     1.77   102.32     0  01:31        0.00
  Node_04050           JUNCTION     0.26     1.60   102.56     0  01:37        0.00
  Node_04054           JUNCTION     0.02     0.40   101.54     0  01:45        0.00
  Node_04055           JUNCTION     0.14     0.70   101.51     0  01:45        0.00
  Node_04057           JUNCTION     0.07     1.10   101.41     0  01:45        0.00
  Node_04384           JUNCTION     0.63     1.93    99.51     0  01:46        0.00
  Node_04385           JUNCTION     0.35     1.68    99.60     0  01:47        0.00
  Node_04386           JUNCTION     0.35     1.71    99.65     0  01:46        0.00
  Node_04387           JUNCTION     0.35     1.74    99.71     0  01:47        0.00
  Node_04388           JUNCTION     0.35     1.77    99.77     0  01:46        0.00
  Node_04389           JUNCTION     0.12     0.17   100.53     0  01:45        0.00
  Node_04390           JUNCTION     0.35     1.77    99.79     0  01:46        0.00
  Node_04391           JUNCTION     0.35     1.80    99.86     0  01:46        0.00
  Node_04392           JUNCTION     0.47     1.92    99.88     0  01:46        0.00
  Node_04393           JUNCTION     0.36     1.82    99.93     0  01:46        0.00
[...]
  Link_01825                  36.221
  Link_01826                  37.104
  Link_01827                   0.742
=======
  Link_01782                 202.196
  Link_01783                   5.956
  Link_01784                 211.370
  Link_01785                 214.920
  Link_01786                  56.282
  Link_01787                  27.414
  Link_01788                 302.025
  Link_01789                 305.856
  Link_01790                  11.323
  Link_01791                   9.639
  Link_01792                   7.810
  Link_01793                 334.829
  Link_01794                 338.512
  Link_01795                 342.010
  Link_01796                 345.447
  Link_01797                 348.807
  Link_01798                 749.694
  Link_01799                 744.485
  Link_01800                 754.270
  Link_01801                 362.658
  Link_01802                 718.738
  Link_01803                 739.949
  Link_01804                 625.100
  Link_01805                 620.976
  Link_01806                 616.674
  Link_01807                 612.446
  Link_01808                   9.554
  Link_01809                 599.273
  Link_01810                 592.592
  Link_01811                   2.445
  Link_01812                  47.229
  Link_01813                  38.191
  Link_01814                 571.560
  Link_01815                 566.998
  Link_01816                 558.269
  Link_01817                   4.164
  Link_01818                 533.854
  Link_01819                 521.874
  Link_01820                   7.698
  Link_01821                  20.218
>>>>>>> b040755ab93617f94f1ab7a7036927f36e763e5a
  Link_01822                   4.265
  Link_01823                 114.026
  Link_01824                 112.888
  Link_01825                  36.221
  Link_01826                  37.104
  Link_01827                   0.742
<<<<<<< HEAD
>>>>>>> ebd46bdc835ac17077bb70c3b6f6db3a4ee81ecd
  Link_01828                  38.762
  Link_01829                   4.242
  Link_01830                  44.006
  Link_01831                   0.741
  Link_01832                  45.695
  Link_01833                  46.589
<<<<<<< HEAD
=======
=======
  Link_01828                  38.763
  Link_01829                   4.242
  Link_01830                  44.006
  Link_01831                   0.741
  Link_01832                  45.696
  Link_01833                  46.590
>>>>>>> b040755ab93617f94f1ab7a7036927f36e763e5a
>>>>>>> ebd46bdc835ac17077bb70c3b6f6db3a4ee81ecd
  Link_01834                  48.414
  Link_01835                   0.741
  Link_01836                  26.849
  Link_01837                  18.611
  Link_01838                  17.764
<<<<<<< HEAD
  Link_01839                  25.885
=======
<<<<<<< HEAD
  Link_01839                  25.884
=======
  Link_01839                  25.885
>>>>>>> b040755ab93617f94f1ab7a7036927f36e763e5a
>>>>>>> ebd46bdc835ac17077bb70c3b6f6db3a4ee81ecd
  Link_01840                  25.104
  Link_01841                  24.324
  Link_01842                  21.029
  Link_01843                  19.387
  Link_01844                  18.602
<<<<<<< HEAD
  Link_02074                   5.970
  Link_02075                 103.327
  Link_02076                 114.187
  Link_02077                   7.207
  Link_02078                 124.568
  Link_02079                   7.699
  Link_02080                 135.293
  Link_02081                 138.098
  Link_02082                 140.918
  Link_02083                   7.759
  Link_02084                   6.006
  Link_02085                 379.175
  Link_02086                 372.084
  Link_02087                 368.410
  Link_02088                 364.399
  Link_02089                 359.942
  Link_02090                 340.239
  Link_02091                 337.136
  Link_02092                 333.909
  Link_02093                   6.070
  Link_02094                 320.542
  Link_02095                 317.194
  Link_02096                 285.906
  Link_02097                  13.003
  Link_02098                  14.802
  Link_02099                 282.739
  Link_02100                 279.651
  Link_02101                  11.286
  Link_02102                 263.604
  Link_02103                 249.420
  Link_02104                  12.580
  Link_02105                 201.871
  Link_02106                   9.557
  Link_02107                   2.424
  Link_02108                 193.388
  Link_02109                 190.535
  Link_02110                 164.686
  Link_02111                 110.990
  Link_02112                  11.267
  Link_02113                  83.730
  Link_02114                  18.332
  Link_02115                  17.458
=======
<<<<<<< HEAD
  Link_02074                   5.969
  Link_02075                 103.358
  Link_02076                 114.199
  Link_02077                   7.666
  Link_02078                 124.676
  Link_02079                   7.693
  Link_02080                 135.384
  Link_02081                 138.207
  Link_02082                 141.075
  Link_02083                   7.759
  Link_02084                   6.168
  Link_02085                 388.371
  Link_02086                 381.389
  Link_02087                 377.646
  Link_02088                 372.621
  Link_02089                 367.880
  Link_02090                 347.867
  Link_02091                 344.653
  Link_02092                 341.438
  Link_02093                   6.048
  Link_02094                 329.528
  Link_02095                 327.010
  Link_02096                 298.538
  Link_02097                  13.002
  Link_02098                  14.747
  Link_02099                 296.541
  Link_02100                 293.926
  Link_02101                  11.252
  Link_02102                 276.504
  Link_02103                 262.191
  Link_02104                  12.525
  Link_02105                 213.332
  Link_02106                   9.498
  Link_02107                   2.424
  Link_02108                 203.960
  Link_02109                 200.419
  Link_02110                 164.684
  Link_02111                 110.989
  Link_02112                  11.255
  Link_02113                  83.730
  Link_02114                  18.332
  Link_02115                  17.458
=======
  Link_02074                   5.966
  Link_02075                 103.216
  Link_02076                 114.073
  Link_02077                   7.221
  Link_02078                 124.425
  Link_02079                   7.684
  Link_02080                 135.141
  Link_02081                 137.937
  Link_02082                 140.701
  Link_02083                   7.777
  Link_02084                   6.015
  Link_02085                 370.051
  Link_02086                 362.888
  Link_02087                 359.216
  Link_02088                 355.455
  Link_02089                 351.060
  Link_02090                 331.431
  Link_02091                 328.172
  Link_02092                 324.807
  Link_02093                   5.928
  Link_02094                 311.215
  Link_02095                 307.940
  Link_02096                 277.023
  Link_02097                  12.996
  Link_02098                  14.839
  Link_02099                 274.045
  Link_02100                 271.001
  Link_02101                  11.189
  Link_02102                 254.123
  Link_02103                 239.609
  Link_02104                  12.362
  Link_02105                 194.439
  Link_02106                   9.430
  Link_02107                   2.429
  Link_02108                 187.565
  Link_02109                 185.438
  Link_02110                 164.693
  Link_02111                 110.989
  Link_02112                  11.278
  Link_02113                  83.731
  Link_02114                  18.332
  Link_02115                  17.459
>>>>>>> b040755ab93617f94f1ab7a7036927f36e763e5a
>>>>>>> ebd46bdc835ac17077bb70c3b6f6db3a4ee81ecd
  Link_02116                  16.659
  Link_02117                  15.893
  Link_02118                  15.107
  Link_02123                   4.286
  Link_02124                   5.058
  Link_02125                   5.836
  Link_02126                   6.569
  Link_02127                  14.310
  Link_02128                  13.526
  Link_02129                  12.770
  Link_02130                  12.004
  Link_02131                  11.213
  Link_02132                  10.411
  Link_02133                   9.613
<<<<<<< HEAD
=======
<<<<<<< HEAD
>>>>>>> ebd46bdc835ac17077bb70c3b6f6db3a4ee81ecd
  Link_02134                  84.647
  Link_02135                  85.533
  Link_02136                  90.729
  Link_02137                   4.287
<<<<<<< HEAD
  Link_02138                 100.381
  Link_02139                  99.475
  Link_02140                  98.506
  Link_02141                  97.683
  Link_02142                  96.695
  Link_02143                  91.591
  Link_02383                   2.720
  Link_02384                   5.653
  Link_02385                   8.873
  Link_02386                  20.223
  Link_02387                  31.321
  Link_02388                  33.628
  Link_02389                  20.172
  Link_02390                  35.991
  Link_02391                  58.439
  Link_02392                  23.533
  Link_02393                  83.933
  Link_05459                  23.919
  Link_05460                  58.423
  Link_05461                  76.389
  Link_05462                 191.561
  Link_05463                 331.176
  Link_05464                  16.723
  Link_05496                1132.424
  Link_05662                  19.482
  Link_05663                   4.254
  Link_05664                  25.730
  Link_05665                 306.924
  Link_05677                 237.048
  Link_05678                  13.180
  Link_05720                 726.179
  Link_05721                 597.060
  Link_05722                  11.250
  Link_05723                  64.466
  Link_05725                   7.369
  Link_05726                 382.039
  Link_05727                   4.213
  Link_05728                 324.546
  Link_05729                 266.211
  Link_05730                 163.671
  Link_05731                 111.805
  Link_05732                 110.154
  Link_05742                  20.503
  Link_05743                  86.714
  Link_05744                 144.076
  Link_05752                  16.729
  Link_05753                   2.517
  Link_05754                  20.193
  Link_05791                   4.270
  Link_05812                 188.715
  Link_05813                 118.614
  Link_05814                  89.495
  Link_05815                  84.488
  Link_05816                  10.910
  Link_05817                  16.061
=======
  Link_02138                 100.382
  Link_02139                  99.475
  Link_02140                  98.506
  Link_02141                  97.684
  Link_02142                  96.696
  Link_02143                  91.592
  Link_02383                   2.773
  Link_02384                   5.802
  Link_02385                   9.136
  Link_02386                  20.208
  Link_02387                  31.625
  Link_02388                  34.031
  Link_02389                  20.185
  Link_02390                  36.488
  Link_02391                  58.643
  Link_02392                  23.379
  Link_02393                  83.954
  Link_05459                  23.919
  Link_05460                  58.421
  Link_05461                  76.402
  Link_05462                 192.977
  Link_05463                 332.600
  Link_05464                  16.854
  Link_05496                1145.297
  Link_05662                  19.532
  Link_05663                   4.205
  Link_05664                  25.778
  Link_05665                 308.001
  Link_05677                 237.994
  Link_05678                  13.188
  Link_05720                 735.471
  Link_05721                 605.419
  Link_05722                  11.255
  Link_05723                  64.466
  Link_05725                   7.369
  Link_05726                 391.234
  Link_05727                   4.200
  Link_05728                 332.896
  Link_05729                 279.863
  Link_05730                 163.671
  Link_05731                 111.805
  Link_05732                 110.154
  Link_05742                  20.465
  Link_05743                  86.756
  Link_05744                 144.391
  Link_05752                  16.604
  Link_05753                   2.517
  Link_05754                  20.193
  Link_05791                   4.270
  Link_05812                 189.468
  Link_05813                 119.188
  Link_05814                  89.827
  Link_05815                  84.772
  Link_05816                  10.910
  Link_05817                  16.060
=======
  Link_02134                  84.648
  Link_02135                  85.532
  Link_02136                  90.728
  Link_02137                   4.287
  Link_02138                 100.381
  Link_02139                  99.474
  Link_02140                  98.506
  Link_02141                  97.682
  Link_02142                  96.695
  Link_02143                  91.591
  Link_02383                   2.639
  Link_02384                   5.333
  Link_02385                   8.401
  Link_02386                  20.207
  Link_02387                  30.688
  Link_02388                  32.993
  Link_02389                  20.153
  Link_02390                  35.592
  Link_02391                  58.352
  Link_02392                  23.182
  Link_02393                  83.855
  Link_05459                  23.919
  Link_05460                  58.424
  Link_05461                  76.371
  Link_05462                 191.235
  Link_05463                 330.865
  Link_05464                  15.675
  Link_05496                1121.611
  Link_05662                  19.516
  Link_05663                   4.212
  Link_05664                  25.662
  Link_05665                 306.898
  Link_05677                 236.979
  Link_05678                  13.181
  Link_05720                 714.959
  Link_05721                 587.253
  Link_05722                  11.296
  Link_05723                  64.466
  Link_05725                   7.369
  Link_05726                 373.472
  Link_05727                   4.182
  Link_05728                 315.304
  Link_05729                 256.992
  Link_05730                 163.671
  Link_05731                 111.805
  Link_05732                 110.153
  Link_05742                  20.403
  Link_05743                  86.632
  Link_05744                 143.916
  Link_05752                  16.677
  Link_05753                   2.517
  Link_05754                  20.193
  Link_05791                   4.270
  Link_05812                 188.712
  Link_05813                 118.740
  Link_05814                  89.582
  Link_05815                  84.585
  Link_05816                  10.910
  Link_05817                  16.061
>>>>>>> b040755ab93617f94f1ab7a7036927f36e763e5a
>>>>>>> ebd46bdc835ac17077bb70c3b6f6db3a4ee81ecd
  Link_05818                   9.618
  Link_05983                  17.398
  Link_05984                  14.928
  Link_06039                   0.738
<<<<<<< HEAD
  Link_07220                  70.009
  Link_07221                  72.451
  Link_07222                  87.184
  Link_07230                  89.901
  Link_07231                  92.655
  Link_07233                 155.221
  Link_07234                 157.939
  Link_07235                  60.405
  Link_07270                  25.561
  Link_07271                  34.996
  Link_07274                  11.965
  Link_07277                  42.373
  Link_07278                  50.097
  Link_07295                  49.221
  Link_07296                  53.508
  Link_07297                  67.428
  Link_07303                   6.279
  Link_07306                   6.524
  Link_07321                   9.619
  Link_07464                  17.057
  Link_07578                  20.765
  Link_07579                 244.891
  Link_07580                 220.503
  Link_07687                  15.028
  Link_07865                   9.598
  Link_08891                   7.723
  Link_08912                  29.077
  Link1_to_ChengXi          1182.742
  Link2_to_ChengXi           314.422
  Link3_to_ChengXi           161.365
  Link_to_LaoDongLu          165.595
  Pump_ChengXi1             1125.130
  Pump_ChengXi2              266.432
  Pump_ChengXi3              160.024
  Pump_ChengXi4              143.847
  Pump_LaoDongLu1            135.330
  Pump_LaoDongLu2             33.329
  Pump_LaoDongLu3             20.301
  outfallpump                932.277
  

  Analysis begun on:  Mon Aug 16 03:44:19 2021
  Analysis ended on:  Mon Aug 16 03:44:21 2021
=======
<<<<<<< HEAD
  Link_07220                  61.594
  Link_07221                  64.059
  Link_07222                  78.748
  Link_07230                  81.461
  Link_07231                  84.242
  Link_07233                 146.824
  Link_07234                 149.535
  Link_07235                  60.442
  Link_07270                  23.422
  Link_07271                  29.769
  Link_07274                  12.166
  Link_07277                  37.962
  Link_07278                  42.150
  Link_07295                  41.293
  Link_07296                  45.075
  Link_07297                  58.976
  Link_07303                   6.142
  Link_07306                   6.438
  Link_07321                   9.619
  Link_07464                  17.070
  Link_07578                  20.495
  Link_07579                 256.298
  Link_07580                 232.634
  Link_07687                  15.026
  Link_07865                   9.598
  Link_08891                   7.730
  Link_08912                  29.077
  Link1_to_ChengXi          1197.137
  Link2_to_ChengXi           315.493
  Link3_to_ChengXi           152.958
  Link_to_LaoDongLu          165.593
  Pump_ChengXi1              898.555
  Pump_ChengXi2              422.209
  Pump_ChengXi3              215.815
  Pump_ChengXi4              172.320
  Pump_LaoDongLu1            141.600
  Pump_LaoDongLu2             28.469
  Pump_LaoDongLu3             28.469
  outfallpump               1198.238
  

  Analysis begun on:  Mon Aug 16 03:26:30 2021
  Analysis ended on:  Mon Aug 16 03:26:32 2021
=======
  Link_07220                  66.233
  Link_07221                  68.701
  Link_07222                  83.389
  Link_07230                  86.095
  Link_07231                  88.856
  Link_07233                 151.415
  Link_07234                 154.122
  Link_07235                  60.402
  Link_07270                  24.796
  Link_07271                  33.263
  Link_07274                  12.546
  Link_07277                  40.702
  Link_07278                  47.994
  Link_07295                  45.862
  Link_07296                  49.731
  Link_07297                  63.618
  Link_07303                   6.175
  Link_07306                   6.655
  Link_07321                   9.619
  Link_07464                  17.039
  Link_07578                  20.329
  Link_07579                 235.215
  Link_07580                 212.116
  Link_07687                  15.021
  Link_07865                   9.598
  Link_08891                   7.736
  Link_08912                  29.078
  Link1_to_ChengXi          1172.471
  Link2_to_ChengXi           314.410
  Link3_to_ChengXi           157.566
  Link_to_LaoDongLu          165.602
  Pump_ChengXi1             1048.940
  Pump_ChengXi2              380.447
  Pump_ChengXi3              125.160
  Pump_ChengXi4              125.160
  Pump_LaoDongLu1            128.760
  Pump_LaoDongLu2             55.473
  Pump_LaoDongLu3              0.000
  outfallpump               1139.760
  

  Analysis begun on:  Tue Aug 17 21:44:36 2021
  Analysis ended on:  Tue Aug 17 21:44:38 2021
>>>>>>> b040755ab93617f94f1ab7a7036927f36e763e5a
>>>>>>> ebd46bdc835ac17077bb70c3b6f6db3a4ee81ecd
  Total elapsed time: 00:00:02