
  EPA STORM WATER MANAGEMENT MODEL - VERSION 5.1 (Build 5.3.0.dev0)
  --------------------------------------------------------------

  WARNING 04: minimum elevation drop used for Conduit Link_01776
  WARNING 04: minimum elevation drop used for Conduit Link_01779
  WARNING 04: minimum elevation drop used for Conduit Link_07234
  WARNING 02: maximum depth increased for Node Node_06087
  
  *********************************************************
  NOTE: The summary statistics displayed in this report are
  based on results found at every computational time step,  
  not just on results from each reporting time step.
  *********************************************************
  
  ****************
  Analysis Options
  ****************
  Flow Units ............... CMS
  Process Models:
    Rainfall/Runoff ........ YES
    RDII ................... NO
    Snowmelt ............... NO
    Groundwater ............ NO
    Flow Routing ........... YES
    Ponding Allowed ........ YES
    Water Quality .......... YES
  Infiltration Method ...... HORTON
  Flow Routing Method ...... DYNWAVE
  Surcharge Method ......... EXTRAN
  Starting Date ............ 01/02/2011 00:00:00
  Ending Date .............. 01/02/2011 06:00:00
  Antecedent Dry Days ...... 0.0
  Report Time Step ......... 00:15:00
  Wet Time Step ............ 00:05:00
  Dry Time Step ............ 01:00:00
  Routing Time Step ........ 60.00 sec
  Variable Time Step ....... YES
  Maximum Trials ........... 8
  Number of Threads ........ 1
  Head Tolerance ........... 0.001500 m
  
  
  **************************        Volume         Depth
  Runoff Quantity Continuity     hectare-m            mm
  **************************     ---------       -------
  Total Precipitation ......         0.822        28.750
  Evaporation Loss .........         0.000         0.000
  Infiltration Loss ........         0.034         1.188
  Surface Runoff ...........         0.795        27.790
  Final Storage ............         0.000         0.009
  Continuity Error (%) .....        -0.827
  
  
  **************************           COD
  Runoff Quality Continuity             kg
  **************************    ----------
  Initial Buildup ..........         0.000
  Surface Buildup ..........         0.000
  Wet Deposition ...........      2162.530
  Sweeping Removal .........         0.000
  Infiltration Loss ........        89.360
  BMP Removal ..............         0.000
  Surface Runoff ...........      2090.354
  Remaining Buildup ........         0.706
  Continuity Error (%) .....        -0.827
  
  
  **************************        Volume        Volume
  Flow Routing Continuity        hectare-m      10^6 ltr
  **************************     ---------     ---------
  Dry Weather Inflow .......         0.153         1.529
  Wet Weather Inflow .......         0.795         7.948
  Groundwater Inflow .......         0.000         0.000
  RDII Inflow ..............         0.000         0.000
  External Inflow ..........         0.000         0.000
<<<<<<< HEAD
  External Outflow .........         0.622         6.224
  Flooding Loss ............         0.455         4.552
  Evaporation Loss .........         0.000         0.000
  Exfiltration Loss ........         0.000         0.000
  Initial Stored Volume ....         0.077         0.773
  Final Stored Volume ......         0.164         1.643
  Continuity Error (%) .....       -21.156
=======
<<<<<<< HEAD
  External Outflow .........         0.619         6.192
  Flooding Loss ............         0.467         4.669
  Evaporation Loss .........         0.000         0.000
  Exfiltration Loss ........         0.000         0.000
  Initial Stored Volume ....         0.077         0.773
  Final Stored Volume ......         0.163         1.631
  Continuity Error (%) .....       -21.880
=======
  External Outflow .........         0.617         6.174
  Flooding Loss ............         0.462         4.621
  Evaporation Loss .........         0.000         0.000
  Exfiltration Loss ........         0.000         0.000
  Initial Stored Volume ....         0.077         0.773
  Final Stored Volume ......         0.172         1.720
  Continuity Error (%) .....       -22.104
>>>>>>> b040755ab93617f94f1ab7a7036927f36e763e5a
>>>>>>> ebd46bdc835ac17077bb70c3b6f6db3a4ee81ecd
  
  
  **************************           COD
  Quality Routing Continuity            kg
  **************************    ----------
  Dry Weather Inflow .......       845.606
  Wet Weather Inflow .......      2090.339
  Groundwater Inflow .......         0.000
  RDII Inflow ..............         0.000
  External Inflow ..........         0.000
<<<<<<< HEAD
  External Outflow .........      1389.570
  Flooding Loss ............      1184.349
  Exfiltration Loss ........         0.000
  Mass Reacted .............         0.000
  Initial Stored Mass ......       427.257
  Final Stored Mass ........       365.145
  Continuity Error (%) .....        12.611
=======
<<<<<<< HEAD
  External Outflow .........      1849.767
  Flooding Loss ............      1203.076
  Exfiltration Loss ........         0.000
  Mass Reacted .............         0.000
  Initial Stored Mass ......       427.257
  Final Stored Mass ........       350.571
  Continuity Error (%) .....        -1.196
=======
  External Outflow .........      1479.663
  Flooding Loss ............      1192.911
  Exfiltration Loss ........         0.000
  Mass Reacted .............         0.000
  Initial Stored Mass ......       427.257
  Final Stored Mass ........       372.079
  Continuity Error (%) .....         9.472
>>>>>>> b040755ab93617f94f1ab7a7036927f36e763e5a
>>>>>>> ebd46bdc835ac17077bb70c3b6f6db3a4ee81ecd
  
  
  *************************
  Highest Continuity Errors
  *************************
<<<<<<< HEAD
  Node Node_04713 (-64.38%)
  Node Node_07272 (-52.60%)
  Node Node_04715 (-31.06%)
  Node Node_04714 (-23.01%)
  Node Node_04711 (-13.66%)
=======
<<<<<<< HEAD
  Node Node_04713 (-71.02%)
  Node Node_07272 (-64.01%)
  Node Node_04714 (-26.57%)
  Node Node_04715 (-19.51%)
  Node Node_04711 (-16.69%)
=======
  Node Node_07272 (-58.87%)
  Node Node_04713 (-48.91%)
  Node Node_04714 (-28.46%)
  Node Node_04715 (-21.27%)
  Node Node_04711 (-11.90%)
>>>>>>> b040755ab93617f94f1ab7a7036927f36e763e5a
>>>>>>> ebd46bdc835ac17077bb70c3b6f6db3a4ee81ecd
  
  
  ***************************
  Time-Step Critical Elements
  ***************************
<<<<<<< HEAD
  Link Link_01778 (51.64%)
  Link Link_02129 (37.06%)
  Link Link_01558 (2.57%)
  Link Link_05464 (1.81%)
  Link Link_01780 (1.06%)
=======
<<<<<<< HEAD
  Link Link_01778 (51.41%)
  Link Link_02129 (39.91%)
  Link Link_05464 (1.76%)
  Link Link_01780 (1.09%)
=======
  Link Link_01778 (51.81%)
  Link Link_02129 (37.66%)
  Link Link_05464 (1.62%)
  Link Link_01780 (1.39%)
>>>>>>> b040755ab93617f94f1ab7a7036927f36e763e5a
>>>>>>> ebd46bdc835ac17077bb70c3b6f6db3a4ee81ecd
  
  
  ********************************
  Highest Flow Instability Indexes
  ********************************
<<<<<<< HEAD
  Link Link_01787 (57)
  Link Link_01558 (56)
  Link Link_01780 (53)
  Link Link_01781 (52)
  Link Link_01778 (48)
=======
  Link Link_01787 (56)
  Link Link_01558 (55)
<<<<<<< HEAD
  Link Link_01781 (52)
  Link Link_01780 (51)
  Link Link_01778 (48)
=======
  Link Link_01780 (52)
  Link Link_01781 (52)
  Link Link_01778 (47)
>>>>>>> b040755ab93617f94f1ab7a7036927f36e763e5a
>>>>>>> ebd46bdc835ac17077bb70c3b6f6db3a4ee81ecd
  
  
  *************************
  Routing Time Step Summary
  *************************
  Minimum Time Step           :     5.00 sec
  Average Time Step           :     5.00 sec
  Maximum Time Step           :     5.00 sec
  Percent in Steady State     :     0.00
<<<<<<< HEAD
  Average Iterations per Step :     5.23
  Percent Not Converging      :    50.39
=======
  Average Iterations per Step :     5.24
  Percent Not Converging      :    49.58
>>>>>>> ebd46bdc835ac17077bb70c3b6f6db3a4ee81ecd
  
  
  ***************************
  Subcatchment Runoff Summary
  ***************************
  
  ------------------------------------------------------------------------------------------------------------------------------
                            Total      Total      Total      Total     Imperv       Perv      Total       Total     Peak  Runoff
                           Precip      Runon       Evap      Infil     Runoff     Runoff     Runoff      Runoff   Runoff   Coeff
  Subcatchment                 mm         mm         mm         mm         mm         mm         mm    10^6 ltr      CMS
  ------------------------------------------------------------------------------------------------------------------------------
  2707                      28.75       0.00       0.00       1.19       7.19      20.60      27.79        0.03     0.01   0.967
  2708                      28.75       0.00       0.00       1.19       7.19      20.60      27.79        0.03     0.01   0.967
  2709                      28.75       0.00       0.00       1.19       7.19      20.60      27.79        0.03     0.01   0.967
  2710                      28.75       0.00       0.00       1.19       7.19      20.60      27.79        0.03     0.01   0.967
  2712                      28.75       0.00       0.00       1.19       7.19      20.60      27.79        0.03     0.01   0.967
  2713                      28.75       0.00       0.00       1.19       7.19      20.60      27.79        0.03     0.01   0.967
  2714                      28.75       0.00       0.00       1.19       7.19      20.60      27.79        0.03     0.01   0.967
  2715                      28.75       0.00       0.00       1.19       7.19      20.60      27.79        0.03     0.01   0.967
  2716                      28.75       0.00       0.00       1.19       7.19      20.60      27.79        0.03     0.01   0.967
  2717                      28.75       0.00       0.00       1.19       7.19      20.60      27.79        0.03     0.01   0.967
  2718                      28.75       0.00       0.00       1.19       7.19      20.60      27.79        0.03     0.01   0.967
  2719                      28.75       0.00       0.00       1.19       7.19      20.60      27.79        0.03     0.01   0.967
  2721                      28.75       0.00       0.00       1.19       7.19      20.60      27.79        0.03     0.01   0.967
  2722                      28.75       0.00       0.00       1.19       7.19      20.60      27.79        0.03     0.01   0.967
  2723                      28.75       0.00       0.00       1.19       7.19      20.60      27.79        0.03     0.01   0.967
  2724                      28.75       0.00       0.00       1.19       7.19      20.60      27.79        0.03     0.01   0.967
  2725                      28.75       0.00       0.00       1.19       7.19      20.60      27.79        0.03     0.01   0.967
  2726                      28.75       0.00       0.00       1.19       7.19      20.60      27.79        0.03     0.01   0.967
  2727                      28.75       0.00       0.00       1.19       7.19      20.60      27.79        0.03     0.01   0.967
  2728                      28.75       0.00       0.00       1.19       7.19      20.60      27.79        0.03     0.01   0.967
  2729                      28.75       0.00       0.00       1.19       7.19      20.60      27.79        0.03     0.01   0.967
  2730                      28.75       0.00       0.00       1.19       7.19      20.60      27.79        0.03     0.01   0.967
  2731                      28.75       0.00       0.00       1.19       7.19      20.60      27.79        0.03     0.01   0.967
  2732                      28.75       0.00       0.00       1.19       7.19      20.60      27.79        0.03     0.01   0.967
  2733                      28.75       0.00       0.00       1.19       7.19      20.60      27.79        0.03     0.01   0.967
  2734                      28.75       0.00       0.00       1.19       7.19      20.60      27.79        0.03     0.01   0.967
  2735                      28.75       0.00       0.00       1.19       7.19      20.60      27.79        0.03     0.01   0.967
  2736                      28.75       0.00       0.00       1.19       7.19      20.60      27.79        0.03     0.01   0.967
  2737                      28.75       0.00       0.00       1.19       7.19      20.60      27.79        0.03     0.01   0.967
  2738                      28.75       0.00       0.00       1.19       7.19      20.60      27.79        0.03     0.01   0.967
  2739                      28.75       0.00       0.00       1.19       7.19      20.60      27.79        0.03     0.01   0.967
  2740                      28.75       0.00       0.00       1.19       7.19      20.60      27.79        0.03     0.01   0.967
  2741                      28.75       0.00       0.00       1.19       7.19      20.60      27.79        0.03     0.01   0.967
  2742                      28.75       0.00       0.00       1.19       7.19      20.60      27.79        0.03     0.01   0.967
  2743                      28.75       0.00       0.00       1.19       7.19      20.60      27.79        0.03     0.01   0.967
  2744                      28.75       0.00       0.00       1.19       7.19      20.60      27.79        0.03     0.01   0.967
  2745                      28.75       0.00       0.00       1.19       7.19      20.60      27.79        0.03     0.01   0.967
  2746                      28.75       0.00       0.00       1.19       7.19      20.60      27.79        0.03     0.01   0.967
  2747                      28.75       0.00       0.00       1.19       7.19      20.60      27.79        0.03     0.01   0.967
  2748                      28.75       0.00       0.00       1.19       7.19      20.60      27.79        0.03     0.01   0.967
  2749                      28.75       0.00       0.00       1.19       7.19      20.60      27.79        0.03     0.01   0.967
  2750                      28.75       0.00       0.00       1.19       7.19      20.60      27.79        0.03     0.01   0.967
  2751                      28.75       0.00       0.00       1.19       7.19      20.60      27.79        0.03     0.01   0.967
  2752                      28.75       0.00       0.00       1.19       7.19      20.60      27.79        0.03     0.01   0.967
  2753                      28.75       0.00       0.00       1.19       7.19      20.60      27.79        0.03     0.01   0.967
  2754                      28.75       0.00       0.00       1.19       7.19      20.60      27.79        0.03     0.01   0.967
  2755                      28.75       0.00       0.00       1.19       7.19      20.60      27.79        0.03     0.01   0.967
  2756                      28.75       0.00       0.00       1.19       7.19      20.60      27.79        0.03     0.01   0.967
  2964                      28.75       0.00       0.00       1.19       7.19      20.60      27.79        0.03     0.01   0.967
  2969                      28.75       0.00       0.00       1.19       7.19      20.60      27.79        0.03     0.01   0.967
  2970                      28.75       0.00       0.00       1.19       7.19      20.60      27.79        0.03     0.01   0.967
  2974                      28.75       0.00       0.00       1.19       7.19      20.60      27.79        0.03     0.01   0.967
  2975                      28.75       0.00       0.00       1.19       7.19      20.60      27.79        0.03     0.01   0.967
  2976                      28.75       0.00       0.00       1.19       7.19      20.60      27.79        0.03     0.01   0.967
  2977                      28.75       0.00       0.00       1.19       7.19      20.60      27.79        0.03     0.01   0.967
  2978                      28.75       0.00       0.00       1.19       7.19      20.60      27.79        0.03     0.01   0.967
  2979                      28.75       0.00       0.00       1.19       7.19      20.60      27.79        0.03     0.01   0.967
  2980                      28.75       0.00       0.00       1.19       7.19      20.60      27.79        0.03     0.01   0.967
  2981                      28.75       0.00       0.00       1.19       7.19      20.60      27.79        0.03     0.01   0.967
  2982                      28.75       0.00       0.00       1.19       7.19      20.60      27.79        0.03     0.01   0.967
  2984                      28.75       0.00       0.00       1.19       7.19      20.60      27.79        0.03     0.01   0.967
  2985                      28.75       0.00       0.00       1.19       7.19      20.60      27.79        0.03     0.01   0.967
  3925                      28.75       0.00       0.00       1.19       7.19      20.60      27.79        0.03     0.01   0.967
  3926                      28.75       0.00       0.00       1.19       7.19      20.60      27.79        0.03     0.01   0.967
  3927                      28.75       0.00       0.00       1.19       7.19      20.60      27.79        0.03     0.01   0.967
  3928                      28.75       0.00       0.00       1.19       7.19      20.60      27.79        0.03     0.01   0.967
  3929                      28.75       0.00       0.00       1.19       7.19      20.60      27.79        0.03     0.01   0.967
  3930                      28.75       0.00       0.00       1.19       7.19      20.60      27.79        0.03     0.01   0.967
  3931                      28.75       0.00       0.00       1.19       7.19      20.60      27.79        0.03     0.01   0.967
  3932                      28.75       0.00       0.00       1.19       7.19      20.60      27.79        0.03     0.01   0.967
  3933                      28.75       0.00       0.00       1.19       7.19      20.60      27.79        0.03     0.01   0.967
  3934                      28.75       0.00       0.00       1.19       7.19      20.60      27.79        0.03     0.01   0.967
  3935                      28.75       0.00       0.00       1.19       7.19      20.60      27.79        0.03     0.01   0.967
  3936                      28.75       0.00       0.00       1.19       7.19      20.60      27.79        0.03     0.01   0.967
  3937                      28.75       0.00       0.00       1.19       7.19      20.60      27.79        0.03     0.01   0.967
  3938                      28.75       0.00       0.00       1.19       7.19      20.60      27.79        0.03     0.01   0.967
  3939                      28.75       0.00       0.00       1.19       7.19      20.60      27.79        0.03     0.01   0.967
  3940                      28.75       0.00       0.00       1.19       7.19      20.60      27.79        0.03     0.01   0.967
  3941                      28.75       0.00       0.00       1.19       7.19      20.60      27.79        0.03     0.01   0.967
  3942                      28.75       0.00       0.00       1.19       7.19      20.60      27.79        0.03     0.01   0.967
  3943                      28.75       0.00       0.00       1.19       7.19      20.60      27.79        0.03     0.01   0.967
  3944                      28.75       0.00       0.00       1.19       7.19      20.60      27.79        0.03     0.01   0.967
  3945                      28.75       0.00       0.00       1.19       7.19      20.60      27.79        0.03     0.01   0.967
  3946                      28.75       0.00       0.00       1.19       7.19      20.60      27.79        0.03     0.01   0.967
  3947                      28.75       0.00       0.00       1.19       7.19      20.60      27.79        0.03     0.01   0.967
  3948                      28.75       0.00       0.00       1.19       7.19      20.60      27.79        0.03     0.01   0.967
  3949                      28.75       0.00       0.00       1.19       7.19      20.60      27.79        0.03     0.01   0.967
  3950                      28.75       0.00       0.00       1.19       7.19      20.60      27.79        0.03     0.01   0.967
  3951                      28.75       0.00       0.00       1.19       7.19      20.60      27.79        0.03     0.01   0.967
  3952                      28.75       0.00       0.00       1.19       7.19      20.60      27.79        0.03     0.01   0.967
  3953                      28.75       0.00       0.00       1.19       7.19      20.60      27.79        0.03     0.01   0.967
  3954                      28.75       0.00       0.00       1.19       7.19      20.60      27.79        0.03     0.01   0.967
  3955                      28.75       0.00       0.00       1.19       7.19      20.60      27.79        0.03     0.01   0.967
  3956                      28.75       0.00       0.00       1.19       7.19      20.60      27.79        0.03     0.01   0.967
  4032                      28.75       0.00       0.00       1.19       7.19      20.60      27.79        0.03     0.01   0.967
  4033                      28.75       0.00       0.00       1.19       7.19      20.60      27.79        0.03     0.01   0.967
  4041                      28.75       0.00       0.00       1.19       7.19      20.60      27.79        0.03     0.01   0.967
  4051                      28.75       0.00       0.00       1.19       7.19      20.60      27.79        0.03     0.01   0.967
  4055                      28.75       0.00       0.00       1.19       7.19      20.60      27.79        0.03     0.01   0.967
  4056                      28.75       0.00       0.00       1.19       7.19      20.60      27.79        0.03     0.01   0.967
  4058                      28.75       0.00       0.00       1.19       7.19      20.60      27.79        0.03     0.01   0.967
  4385                      28.75       0.00       0.00       1.19       7.19      20.60      27.79        0.03     0.01   0.967
  4386                      28.75       0.00       0.00       1.19       7.19      20.60      27.79        0.03     0.01   0.967
  4387                      28.75       0.00       0.00       1.19       7.19      20.60      27.79        0.03     0.01   0.967
  4388                      28.75       0.00       0.00       1.19       7.19      20.60      27.79        0.03     0.01   0.967
  4389                      28.75       0.00       0.00       1.19       7.19      20.60      27.79        0.03     0.01   0.967
  4390                      28.75       0.00       0.00       1.19       7.19      20.60      27.79        0.03     0.01   0.967
  4391                      28.75       0.00       0.00       1.19       7.19      20.60      27.79        0.03     0.01   0.967
  4392                      28.75       0.00       0.00       1.19       7.19      20.60      27.79        0.03     0.01   0.967
  4393                      28.75       0.00       0.00       1.19       7.19      20.60      27.79        0.03     0.01   0.967
  4394                      28.75       0.00       0.00       1.19       7.19      20.60      27.79        0.03     0.01   0.967
  4395                      28.75       0.00       0.00       1.19       7.19      20.60      27.79        0.03     0.01   0.967
  4396                      28.75       0.00       0.00       1.19       7.19      20.60      27.79        0.03     0.01   0.967
  4397                      28.75       0.00       0.00       1.19       7.19      20.60      27.79        0.03     0.01   0.967
  4398                      28.75       0.00       0.00       1.19       7.19      20.60      27.79        0.03     0.01   0.967
  4429                      28.75       0.00       0.00       1.19       7.19      20.60      27.79        0.03     0.01   0.967
  4430                      28.75       0.00       0.00       1.19       7.19      20.60      27.79        0.03     0.01   0.967
  4431                      28.75       0.00       0.00       1.19       7.19      20.60      27.79        0.03     0.01   0.967
  4432                      28.75       0.00       0.00       1.19       7.19      20.60      27.79        0.03     0.01   0.967
  4433                      28.75       0.00       0.00       1.19       7.19      20.60      27.79        0.03     0.01   0.967
  4434                      28.75       0.00       0.00       1.19       7.19      20.60      27.79        0.03     0.01   0.967
  4435                      28.75       0.00       0.00       1.19       7.19      20.60      27.79        0.03     0.01   0.967
  4436                      28.75       0.00       0.00       1.19       7.19      20.60      27.79        0.03     0.01   0.967
  4437                      28.75       0.00       0.00       1.19       7.19      20.60      27.79        0.03     0.01   0.967
  4438                      28.75       0.00       0.00       1.19       7.19      20.60      27.79        0.03     0.01   0.967
  4439                      28.75       0.00       0.00       1.19       7.19      20.60      27.79        0.03     0.01   0.967
  4440                      28.75       0.00       0.00       1.19       7.19      20.60      27.79        0.03     0.01   0.967
  4441                      28.75       0.00       0.00       1.19       7.19      20.60      27.79        0.03     0.01   0.967
  4442                      28.75       0.00       0.00       1.19       7.19      20.60      27.79        0.03     0.01   0.967
  4443                      28.75       0.00       0.00       1.19       7.19      20.60      27.79        0.03     0.01   0.967
  4444                      28.75       0.00       0.00       1.19       7.19      20.60      27.79        0.03     0.01   0.967
  4445                      28.75       0.00       0.00       1.19       7.19      20.60      27.79        0.03     0.01   0.967
  4446                      28.75       0.00       0.00       1.19       7.19      20.60      27.79        0.03     0.01   0.967
  4447                      28.75       0.00       0.00       1.19       7.19      20.60      27.79        0.03     0.01   0.967
  4448                      28.75       0.00       0.00       1.19       7.19      20.60      27.79        0.03     0.01   0.967
  4449                      28.75       0.00       0.00       1.19       7.19      20.60      27.79        0.03     0.01   0.967
  4450                      28.75       0.00       0.00       1.19       7.19      20.60      27.79        0.03     0.01   0.967
  4451                      28.75       0.00       0.00       1.19       7.19      20.60      27.79        0.03     0.01   0.967
  4452                      28.75       0.00       0.00       1.19       7.19      20.60      27.79        0.03     0.01   0.967
  4453                      28.75       0.00       0.00       1.19       7.19      20.60      27.79        0.03     0.01   0.967
  4454                      28.75       0.00       0.00       1.19       7.19      20.60      27.79        0.03     0.01   0.967
  4462                      28.75       0.00       0.00       1.19       7.19      20.60      27.79        0.03     0.01   0.967
  4463                      28.75       0.00       0.00       1.19       7.19      20.60      27.79        0.03     0.01   0.967
  4563                      28.75       0.00       0.00       1.19       7.19      20.60      27.79        0.03     0.01   0.967
  4564                      28.75       0.00       0.00       1.19       7.19      20.60      27.79        0.03     0.01   0.967
  4565                      28.75       0.00       0.00       1.19       7.19      20.60      27.79        0.03     0.01   0.967
  4566                      28.75       0.00       0.00       1.19       7.19      20.60      27.79        0.03     0.01   0.967
  4567                      28.75       0.00       0.00       1.19       7.19      20.60      27.79        0.03     0.01   0.967
  4568                      28.75       0.00       0.00       1.19       7.19      20.60      27.79        0.03     0.01   0.967
  4569                      28.75       0.00       0.00       1.19       7.19      20.60      27.79        0.03     0.01   0.967
  4570                      28.75       0.00       0.00       1.19       7.19      20.60      27.79        0.03     0.01   0.967
  4571                      28.75       0.00       0.00       1.19       7.19      20.60      27.79        0.03     0.01   0.967
  4572                      28.75       0.00       0.00       1.19       7.19      20.60      27.79        0.03     0.01   0.967
  4573                      28.75       0.00       0.00       1.19       7.19      20.60      27.79        0.03     0.01   0.967
  4574                      28.75       0.00       0.00       1.19       7.19      20.60      27.79        0.03     0.01   0.967
  4575                      28.75       0.00       0.00       1.19       7.19      20.60      27.79        0.03     0.01   0.967
  4576                      28.75       0.00       0.00       1.19       7.19      20.60      27.79        0.03     0.01   0.967
  4577                      28.75       0.00       0.00       1.19       7.19      20.60      27.79        0.03     0.01   0.967
  4578                      28.75       0.00       0.00       1.19       7.19      20.60      27.79        0.03     0.01   0.967
  4579                      28.75       0.00       0.00       1.19       7.19      20.60      27.79        0.03     0.01   0.967
  4580                      28.75       0.00       0.00       1.19       7.19      20.60      27.79        0.03     0.01   0.967
  4581                      28.75       0.00       0.00       1.19       7.19      20.60      27.79        0.03     0.01   0.967
  4624                      28.75       0.00       0.00       1.19       7.19      20.60      27.79        0.03     0.01   0.967
  4625                      28.75       0.00       0.00       1.19       7.19      20.60      27.79        0.03     0.01   0.967
  4644                      28.75       0.00       0.00       1.19       7.19      20.60      27.79        0.03     0.01   0.967
  4645                      28.75       0.00       0.00       1.19       7.19      20.60      27.79        0.03     0.01   0.967
  4646                      28.75       0.00       0.00       1.19       7.19      20.60      27.79        0.03     0.01   0.967
  4679                      28.75       0.00       0.00       1.19       7.19      20.60      27.79        0.03     0.01   0.967
  4680                      28.75       0.00       0.00       1.19       7.19      20.60      27.79        0.03     0.01   0.967
  4681                      28.75       0.00       0.00       1.19       7.19      20.60      27.79        0.03     0.01   0.967
  4682                      28.75       0.00       0.00       1.19       7.19      20.60      27.79        0.03     0.01   0.967
  4683                      28.75       0.00       0.00       1.19       7.19      20.60      27.79        0.03     0.01   0.967
  4711                      28.75       0.00       0.00       1.19       7.19      20.60      27.79        0.03     0.01   0.967
  4712                      28.75       0.00       0.00       1.19       7.19      20.60      27.79        0.03     0.01   0.967
  4713                      28.75       0.00       0.00       1.19       7.19      20.60      27.79        0.03     0.01   0.967
  4714                      28.75       0.00       0.00       1.19       7.19      20.60      27.79        0.03     0.01   0.967
  4715                      28.75       0.00       0.00       1.19       7.19      20.60      27.79        0.03     0.01   0.967
  4716                      28.75       0.00       0.00       1.19       7.19      20.60      27.79        0.03     0.01   0.967
  4717                      28.75       0.00       0.00       1.19       7.19      20.60      27.79        0.03     0.01   0.967
  4718                      28.75       0.00       0.00       1.19       7.19      20.60      27.79        0.03     0.01   0.967
  4722                      28.75       0.00       0.00       1.19       7.19      20.60      27.79        0.03     0.01   0.967
  4760                      28.75       0.00       0.00       1.19       7.19      20.60      27.79        0.03     0.01   0.967
  4761                      28.75       0.00       0.00       1.19       7.19      20.60      27.79        0.03     0.01   0.967
  4765                      28.75       0.00       0.00       1.19       7.19      20.60      27.79        0.03     0.01   0.967
  4766                      28.75       0.00       0.00       1.19       7.19      20.60      27.79        0.03     0.01   0.967
  4767                      28.75       0.00       0.00       1.19       7.19      20.60      27.79        0.03     0.01   0.967
  4768                      28.75       0.00       0.00       1.19       7.19      20.60      27.79        0.03     0.01   0.967
  4769                      28.75       0.00       0.00       1.19       7.19      20.60      27.79        0.03     0.01   0.967
  4855                      28.75       0.00       0.00       1.19       7.19      20.60      27.79        0.03     0.01   0.967
  4856                      28.75       0.00       0.00       1.19       7.19      20.60      27.79        0.03     0.01   0.967
  5284                      28.75       0.00       0.00       1.19       7.19      20.60      27.79        0.03     0.01   0.967
  5285                      28.75       0.00       0.00       1.19       7.19      20.60      27.79        0.03     0.01   0.967
  5286                      28.75       0.00       0.00       1.19       7.19      20.60      27.79        0.03     0.01   0.967
  5287                      28.75       0.00       0.00       1.19       7.19      20.60      27.79        0.03     0.01   0.967
  5288                      28.75       0.00       0.00       1.19       7.19      20.60      27.79        0.03     0.01   0.967
  5289                      28.75       0.00       0.00       1.19       7.19      20.60      27.79        0.03     0.01   0.967
  5290                      28.75       0.00       0.00       1.19       7.19      20.60      27.79        0.03     0.01   0.967
  5291                      28.75       0.00       0.00       1.19       7.19      20.60      27.79        0.03     0.01   0.967
  5292                      28.75       0.00       0.00       1.19       7.19      20.60      27.79        0.03     0.01   0.967
  5293                      28.75       0.00       0.00       1.19       7.19      20.60      27.79        0.03     0.01   0.967
  5294                      28.75       0.00       0.00       1.19       7.19      20.60      27.79        0.03     0.01   0.967
  5295                      28.75       0.00       0.00       1.19       7.19      20.60      27.79        0.03     0.01   0.967
  5296                      28.75       0.00       0.00       1.19       7.19      20.60      27.79        0.03     0.01   0.967
  5297                      28.75       0.00       0.00       1.19       7.19      20.60      27.79        0.03     0.01   0.967
  5298                      28.75       0.00       0.00       1.19       7.19      20.60      27.79        0.03     0.01   0.967
  5299                      28.75       0.00       0.00       1.19       7.19      20.60      27.79        0.03     0.01   0.967
  5300                      28.75       0.00       0.00       1.19       7.19      20.60      27.79        0.03     0.01   0.967
  5301                      28.75       0.00       0.00       1.19       7.19      20.60      27.79        0.03     0.01   0.967
  5302                      28.75       0.00       0.00       1.19       7.19      20.60      27.79        0.03     0.01   0.967
  5303                      28.75       0.00       0.00       1.19       7.19      20.60      27.79        0.03     0.01   0.967
  5304                      28.75       0.00       0.00       1.19       7.19      20.60      27.79        0.03     0.01   0.967
  5305                      28.75       0.00       0.00       1.19       7.19      20.60      27.79        0.03     0.01   0.967
  5306                      28.75       0.00       0.00       1.19       7.19      20.60      27.79        0.03     0.01   0.967
  5307                      28.75       0.00       0.00       1.19       7.19      20.60      27.79        0.03     0.01   0.967
  5308                      28.75       0.00       0.00       1.19       7.19      20.60      27.79        0.03     0.01   0.967
  5309                      28.75       0.00       0.00       1.19       7.19      20.60      27.79        0.03     0.01   0.967
  5310                      28.75       0.00       0.00       1.19       7.19      20.60      27.79        0.03     0.01   0.967
  5311                      28.75       0.00       0.00       1.19       7.19      20.60      27.79        0.03     0.01   0.967
  5312                      28.75       0.00       0.00       1.19       7.19      20.60      27.79        0.03     0.01   0.967
  5313                      28.75       0.00       0.00       1.19       7.19      20.60      27.79        0.03     0.01   0.967
  5314                      28.75       0.00       0.00       1.19       7.19      20.60      27.79        0.03     0.01   0.967
  5315                      28.75       0.00       0.00       1.19       7.19      20.60      27.79        0.03     0.01   0.967
  5316                      28.75       0.00       0.00       1.19       7.19      20.60      27.79        0.03     0.01   0.967
  5317                      28.75       0.00       0.00       1.19       7.19      20.60      27.79        0.03     0.01   0.967
  5318                      28.75       0.00       0.00       1.19       7.19      20.60      27.79        0.03     0.01   0.967
  5319                      28.75       0.00       0.00       1.19       7.19      20.60      27.79        0.03     0.01   0.967
  5320                      28.75       0.00       0.00       1.19       7.19      20.60      27.79        0.03     0.01   0.967
  5321                      28.75       0.00       0.00       1.19       7.19      20.60      27.79        0.03     0.01   0.967
  5322                      28.75       0.00       0.00       1.19       7.19      20.60      27.79        0.03     0.01   0.967
  5323                      28.75       0.00       0.00       1.19       7.19      20.60      27.79        0.03     0.01   0.967
  5324                      28.75       0.00       0.00       1.19       7.19      20.60      27.79        0.03     0.01   0.967
  5325                      28.75       0.00       0.00       1.19       7.19      20.60      27.79        0.03     0.01   0.967
  5326                      28.75       0.00       0.00       1.19       7.19      20.60      27.79        0.03     0.01   0.967
  5327                      28.75       0.00       0.00       1.19       7.19      20.60      27.79        0.03     0.01   0.967
  5328                      28.75       0.00       0.00       1.19       7.19      20.60      27.79        0.03     0.01   0.967
  5329                      28.75       0.00       0.00       1.19       7.19      20.60      27.79        0.03     0.01   0.967
  5330                      28.75       0.00       0.00       1.19       7.19      20.60      27.79        0.03     0.01   0.967
  5333                      28.75       0.00       0.00       1.19       7.19      20.60      27.79        0.03     0.01   0.967
  5334                      28.75       0.00       0.00       1.19       7.19      20.60      27.79        0.03     0.01   0.967
  6040                      28.75       0.00       0.00       1.19       7.19      20.60      27.79        0.03     0.01   0.967
  6041                      28.75       0.00       0.00       1.19       7.19      20.60      27.79        0.03     0.01   0.967
  6162                      28.75       0.00       0.00       1.19       7.19      20.60      27.79        0.03     0.01   0.967
  7207                      28.75       0.00       0.00       1.19       7.19      20.60      27.79        0.03     0.01   0.967
  7208                      28.75       0.00       0.00       1.19       7.19      20.60      27.79        0.03     0.01   0.967
  7213                      28.75       0.00       0.00       1.19       7.19      20.60      27.79        0.03     0.01   0.967
  7214                      28.75       0.00       0.00       1.19       7.19      20.60      27.79        0.03     0.01   0.967
  7219                      28.75       0.00       0.00       1.19       7.19      20.60      27.79        0.03     0.01   0.967
  7220                      28.75       0.00       0.00       1.19       7.19      20.60      27.79        0.03     0.01   0.967
  7221                      28.75       0.00       0.00       1.19       7.19      20.60      27.79        0.03     0.01   0.967
  7225                      28.75       0.00       0.00       1.19       7.19      20.60      27.79        0.03     0.01   0.967
  7229                      28.75       0.00       0.00       1.19       7.19      20.60      27.79        0.03     0.01   0.967
  7231                      28.75       0.00       0.00       1.19       7.19      20.60      27.79        0.03     0.01   0.967
  7268                      28.75       0.00       0.00       1.19       7.19      20.60      27.79        0.03     0.01   0.967
  7269                      28.75       0.00       0.00       1.19       7.19      20.60      27.79        0.03     0.01   0.967
  7271                      28.75       0.00       0.00       1.19       7.19      20.60      27.79        0.03     0.01   0.967
  7272                      28.75       0.00       0.00       1.19       7.19      20.60      27.79        0.03     0.01   0.967
  7273                      28.75       0.00       0.00       1.19       7.19      20.60      27.79        0.03     0.01   0.967
  7433                      28.75       0.00       0.00       1.19       7.19      20.60      27.79        0.03     0.01   0.967
  7434                      28.75       0.00       0.00       1.19       7.19      20.60      27.79        0.03     0.01   0.967
  7544                      28.75       0.00       0.00       1.19       7.19      20.60      27.79        0.03     0.01   0.967
  7545                      28.75       0.00       0.00       1.19       7.19      20.60      27.79        0.03     0.01   0.967
  8737                      28.75       0.00       0.00       1.19       7.19      20.60      27.79        0.03     0.01   0.967
  8818                      28.75       0.00       0.00       1.19       7.19      20.60      27.79        0.03     0.01   0.967
  9942                      28.75       0.00       0.00       1.19       7.19      20.60      27.79        0.03     0.01   0.967
  9957                      28.75       0.00       0.00       1.19       7.19      20.60      27.79        0.03     0.01   0.967
  4399                      28.75       0.00       0.00       1.13       7.19      20.57      27.76        0.01     0.00   0.966
  4400                      28.75       0.00       0.00       1.13       7.19      20.57      27.76        0.01     0.00   0.966
  4401                      28.75       0.00       0.00       1.13       7.19      20.57      27.76        0.01     0.00   0.966
  4402                      28.75       0.00       0.00       1.13       7.19      20.57      27.76        0.01     0.00   0.966
  4403                      28.75       0.00       0.00       1.13       7.19      20.57      27.76        0.01     0.00   0.966
  4404                      28.75       0.00       0.00       1.13       7.19      20.57      27.76        0.01     0.00   0.966
  4405                      28.75       0.00       0.00       1.13       7.19      20.57      27.76        0.01     0.00   0.966
  4406                      28.75       0.00       0.00       1.13       7.19      20.57      27.76        0.01     0.00   0.966
  4407                      28.75       0.00       0.00       1.13       7.19      20.57      27.76        0.01     0.00   0.966
  4408                      28.75       0.00       0.00       1.13       7.19      20.57      27.76        0.01     0.00   0.966
  4409                      28.75       0.00       0.00       1.13       7.19      20.57      27.76        0.01     0.00   0.966
  4410                      28.75       0.00       0.00       1.13       7.19      20.57      27.76        0.01     0.00   0.966
  4411                      28.75       0.00       0.00       1.13       7.19      20.57      27.76        0.01     0.00   0.966
  4412                      28.75       0.00       0.00       1.13       7.19      20.57      27.76        0.01     0.00   0.966
  4423                      28.75       0.00       0.00       1.13       7.19      20.57      27.76        0.01     0.00   0.966
  4424                      28.75       0.00       0.00       1.13       7.19      20.57      27.76        0.01     0.00   0.966
  4425                      28.75       0.00       0.00       1.13       7.19      20.57      27.76        0.01     0.00   0.966
  4426                      28.75       0.00       0.00       1.13       7.19      20.57      27.76        0.01     0.00   0.966
  4427                      28.75       0.00       0.00       1.13       7.19      20.57      27.76        0.01     0.00   0.966
  4428                      28.75       0.00       0.00       1.13       7.19      20.57      27.76        0.01     0.00   0.966
  4455                      28.75       0.00       0.00       1.13       7.19      20.57      27.76        0.01     0.00   0.966
  4456                      28.75       0.00       0.00       1.13       7.19      20.57      27.76        0.01     0.00   0.966
  4457                      28.75       0.00       0.00       1.13       7.19      20.57      27.76        0.01     0.00   0.966
  4458                      28.75       0.00       0.00       1.13       7.19      20.57      27.76        0.01     0.00   0.966
  4459                      28.75       0.00       0.00       1.13       7.19      20.57      27.76        0.01     0.00   0.966
  4460                      28.75       0.00       0.00       1.13       7.19      20.57      27.76        0.01     0.00   0.966
  4461                      28.75       0.00       0.00       1.13       7.19      20.57      27.76        0.01     0.00   0.966
  4464                      28.75       0.00       0.00       1.13       7.19      20.57      27.76        0.01     0.00   0.966
  4465                      28.75       0.00       0.00       1.13       7.19      20.57      27.76        0.01     0.00   0.966
  4466                      28.75       0.00       0.00       1.13       7.19      20.57      27.76        0.01     0.00   0.966
  4467                      28.75       0.00       0.00       1.13       7.19      20.57      27.76        0.01     0.00   0.966
  4468                      28.75       0.00       0.00       1.13       7.19      20.57      27.76        0.01     0.00   0.966
  4469                      28.75       0.00       0.00       1.13       7.19      20.57      27.76        0.01     0.00   0.966
  4470                      28.75       0.00       0.00       1.13       7.19      20.57      27.76        0.01     0.00   0.966
  4471                      28.75       0.00       0.00       1.13       7.19      20.57      27.76        0.01     0.00   0.966
  4472                      28.75       0.00       0.00       1.13       7.19      20.57      27.76        0.01     0.00   0.966
  4473                      28.75       0.00       0.00       1.13       7.19      20.57      27.76        0.01     0.00   0.966
  4474                      28.75       0.00       0.00       1.13       7.19      20.57      27.76        0.01     0.00   0.966
  4628                      28.75       0.00       0.00       1.13       7.19      20.57      27.76        0.01     0.00   0.966
  4631                      28.75       0.00       0.00       1.13       7.19      20.57      27.76        0.01     0.00   0.966
  4632                      28.75       0.00       0.00       1.13       7.19      20.57      27.76        0.01     0.00   0.966
  4633                      28.75       0.00       0.00       1.13       7.19      20.57      27.76        0.01     0.00   0.966
  4634                      28.75       0.00       0.00       1.13       7.19      20.57      27.76        0.01     0.00   0.966
  4637                      28.75       0.00       0.00       1.13       7.19      20.57      27.76        0.01     0.00   0.966
  4686                      28.75       0.00       0.00       1.13       7.19      20.57      27.76        0.01     0.00   0.966
  4687                      28.75       0.00       0.00       1.13       7.19      20.57      27.76        0.01     0.00   0.966
  4688                      28.75       0.00       0.00       1.13       7.19      20.57      27.76        0.01     0.00   0.966
  5032                      28.75       0.00       0.00       1.13       7.19      20.57      27.76        0.01     0.00   0.966
  5331                      28.75       0.00       0.00       1.13       7.19      20.57      27.76        0.01     0.00   0.966
  5332                      28.75       0.00       0.00       1.13       7.19      20.57      27.76        0.01     0.00   0.966
  5335                      28.75       0.00       0.00       1.13       7.19      20.57      27.76        0.01     0.00   0.966
  5336                      28.75       0.00       0.00       1.13       7.19      20.57      27.76        0.01     0.00   0.966
  5337                      28.75       0.00       0.00       1.13       7.19      20.57      27.76        0.01     0.00   0.966
  5338                      28.75       0.00       0.00       1.13       7.19      20.57      27.76        0.01     0.00   0.966
  5339                      28.75       0.00       0.00       1.13       7.19      20.57      27.76        0.01     0.00   0.966
  5340                      28.75       0.00       0.00       1.13       7.19      20.57      27.76        0.01     0.00   0.966
  5341                      28.75       0.00       0.00       1.13       7.19      20.57      27.76        0.01     0.00   0.966
  5342                      28.75       0.00       0.00       1.13       7.19      20.57      27.76        0.01     0.00   0.966
  5343                      28.75       0.00       0.00       1.13       7.19      20.57      27.76        0.01     0.00   0.966
  5344                      28.75       0.00       0.00       1.13       7.19      20.57      27.76        0.01     0.00   0.966
  5345                      28.75       0.00       0.00       1.13       7.19      20.57      27.76        0.01     0.00   0.966
  5346                      28.75       0.00       0.00       1.13       7.19      20.57      27.76        0.01     0.00   0.966
  5347                      28.75       0.00       0.00       1.13       7.19      20.57      27.76        0.01     0.00   0.966
  5348                      28.75       0.00       0.00       1.13       7.19      20.57      27.76        0.01     0.00   0.966
  5349                      28.75       0.00       0.00       1.13       7.19      20.57      27.76        0.01     0.00   0.966
  5350                      28.75       0.00       0.00       1.13       7.19      20.57      27.76        0.01     0.00   0.966
  6088                      28.75       0.00       0.00       1.13       7.19      20.57      27.76        0.01     0.00   0.966
  7275                      28.75       0.00       0.00       1.13       7.19      20.57      27.76        0.01     0.00   0.966
  9955                      28.75       0.00       0.00       1.13       7.19      20.57      27.76        0.01     0.00   0.966
  9956                      28.75       0.00       0.00       1.13       7.19      20.57      27.76        0.01     0.00   0.966
  
  
  ****************************
  Subcatchment Washoff Summary
  ****************************
  
  ----------------------------------
                                 COD
  Subcatchment                    kg
  ----------------------------------
  2707                         7.310
  2708                         7.310
  2709                         7.310
  2710                         7.310
  2712                         7.310
  2713                         7.310
  2714                         7.310
  2715                         7.310
  2716                         7.310
  2717                         7.310
  2718                         7.310
  2719                         7.310
  2721                         7.310
  2722                         7.310
  2723                         7.310
  2724                         7.310
  2725                         7.310
  2726                         7.310
  2727                         7.310
  2728                         7.310
  2729                         7.310
  2730                         7.310
  2731                         7.310
  2732                         7.310
  2733                         7.310
  2734                         7.310
  2735                         7.310
  2736                         7.310
  2737                         7.310
  2738                         7.310
  2739                         7.310
  2740                         7.310
  2741                         7.310
  2742                         7.310
  2743                         7.310
  2744                         7.310
  2745                         7.310
  2746                         7.310
  2747                         7.310
  2748                         7.310
  2749                         7.310
  2750                         7.310
  2751                         7.310
  2752                         7.310
  2753                         7.310
  2754                         7.310
  2755                         7.310
  2756                         7.310
  2964                         7.310
  2969                         7.310
  2970                         7.310
  2974                         7.310
  2975                         7.310
  2976                         7.310
  2977                         7.310
  2978                         7.310
  2979                         7.310
  2980                         7.310
  2981                         7.310
  2982                         7.310
  2984                         7.310
  2985                         7.310
  3925                         7.310
  3926                         7.310
  3927                         7.310
  3928                         7.310
  3929                         7.310
  3930                         7.310
  3931                         7.310
  3932                         7.310
  3933                         7.310
  3934                         7.310
  3935                         7.310
  3936                         7.310
  3937                         7.310
  3938                         7.310
  3939                         7.310
  3940                         7.310
  3941                         7.310
  3942                         7.310
  3943                         7.310
  3944                         7.310
  3945                         7.310
  3946                         7.310
  3947                         7.310
  3948                         7.310
  3949                         7.310
  3950                         7.310
  3951                         7.310
  3952                         7.310
  3953                         7.310
  3954                         7.310
  3955                         7.310
  3956                         7.310
  4032                         7.310
  4033                         7.310
  4041                         7.310
  4051                         7.310
  4055                         7.310
  4056                         7.310
  4058                         7.310
  4385                         7.310
  4386                         7.310
  4387                         7.310
  4388                         7.310
  4389                         7.310
  4390                         7.310
  4391                         7.310
  4392                         7.310
  4393                         7.310
  4394                         7.310
  4395                         7.310
  4396                         7.310
  4397                         7.310
  4398                         7.310
  4429                         7.310
  4430                         7.310
  4431                         7.310
  4432                         7.310
  4433                         7.310
  4434                         7.310
  4435                         7.310
  4436                         7.310
  4437                         7.310
  4438                         7.310
  4439                         7.310
  4440                         7.310
  4441                         7.310
  4442                         7.310
  4443                         7.310
  4444                         7.310
  4445                         7.310
  4446                         7.310
  4447                         7.310
  4448                         7.310
  4449                         7.310
  4450                         7.310
  4451                         7.310
  4452                         7.310
  4453                         7.310
  4454                         7.310
  4462                         7.310
  4463                         7.310
  4563                         7.310
  4564                         7.310
  4565                         7.310
  4566                         7.310
  4567                         7.310
  4568                         7.310
  4569                         7.310
  4570                         7.310
  4571                         7.310
  4572                         7.310
  4573                         7.310
  4574                         7.310
  4575                         7.310
  4576                         7.310
  4577                         7.310
  4578                         7.310
  4579                         7.310
  4580                         7.310
  4581                         7.310
  4624                         7.310
  4625                         7.310
  4644                         7.310
  4645                         7.310
  4646                         7.310
  4679                         7.310
  4680                         7.310
  4681                         7.310
  4682                         7.310
  4683                         7.310
  4711                         7.310
  4712                         7.310
  4713                         7.310
  4714                         7.310
  4715                         7.310
  4716                         7.310
  4717                         7.310
  4718                         7.310
  4722                         7.310
  4760                         7.310
  4761                         7.310
  4765                         7.310
  4766                         7.310
  4767                         7.310
  4768                         7.310
  4769                         7.310
  4855                         7.310
  4856                         7.310
  5284                         7.310
  5285                         7.310
  5286                         7.310
  5287                         7.310
  5288                         7.310
  5289                         7.310
  5290                         7.310
  5291                         7.310
  5292                         7.310
  5293                         7.310
  5294                         7.310
  5295                         7.310
  5296                         7.310
  5297                         7.310
  5298                         7.310
  5299                         7.310
  5300                         7.310
  5301                         7.310
  5302                         7.310
  5303                         7.310
  5304                         7.310
  5305                         7.310
  5306                         7.310
  5307                         7.310
  5308                         7.310
  5309                         7.310
  5310                         7.310
  5311                         7.310
  5312                         7.310
  5313                         7.310
  5314                         7.310
  5315                         7.310
  5316                         7.310
  5317                         7.310
  5318                         7.310
  5319                         7.310
  5320                         7.310
  5321                         7.310
  5322                         7.310
  5323                         7.310
  5324                         7.310
  5325                         7.310
  5326                         7.310
  5327                         7.310
  5328                         7.310
  5329                         7.310
  5330                         7.310
  5333                         7.310
  5334                         7.310
  6040                         7.310
  6041                         7.310
  6162                         7.310
  7207                         7.310
  7208                         7.310
  7213                         7.310
  7214                         7.310
  7219                         7.310
  7220                         7.310
  7221                         7.310
  7225                         7.310
  7229                         7.310
  7231                         7.310
  7268                         7.310
  7269                         7.310
  7271                         7.310
  7272                         7.310
  7273                         7.310
  7433                         7.310
  7434                         7.310
  7544                         7.310
  7545                         7.310
  8737                         7.310
  8818                         7.310
  9942                         7.310
  9957                         7.310
  4399                         2.190
  4400                         2.190
  4401                         2.190
  4402                         2.190
  4403                         2.190
  4404                         2.190
  4405                         2.190
  4406                         2.190
  4407                         2.190
  4408                         2.190
  4409                         2.190
  4410                         2.190
  4411                         2.190
  4412                         2.190
  4423                         2.190
  4424                         2.190
  4425                         2.190
  4426                         2.190
  4427                         2.190
  4428                         2.190
  4455                         2.190
  4456                         2.190
  4457                         2.190
  4458                         2.190
  4459                         2.190
  4460                         2.190
  4461                         2.190
  4464                         2.190
  4465                         2.190
  4466                         2.190
  4467                         2.190
  4468                         2.190
  4469                         2.190
  4470                         2.190
  4471                         2.190
  4472                         2.190
  4473                         2.190
  4474                         2.190
  4628                         2.190
  4631                         2.190
  4632                         2.190
  4633                         2.190
  4634                         2.190
  4637                         2.190
  4686                         2.190
  4687                         2.190
  4688                         2.190
  5032                         2.190
  5331                         2.190
  5332                         2.190
  5335                         2.190
  5336                         2.190
  5337                         2.190
  5338                         2.190
  5339                         2.190
  5340                         2.190
  5341                         2.190
  5342                         2.190
  5343                         2.190
  5344                         2.190
  5345                         2.190
  5346                         2.190
  5347                         2.190
  5348                         2.190
  5349                         2.190
  5350                         2.190
  6088                         2.190
  7275                         2.190
  9955                         2.190
  9956                         2.190
  ----------------------------------
  System                    2090.354
  
  
  ******************
  Node Depth Summary
  ******************
  
  ---------------------------------------------------------------------------------
                                 Average  Maximum  Maximum  Time of Max    Reported
                                   Depth    Depth      HGL   Occurrence   Max Depth
  Node                 Type       Meters   Meters   Meters  days hr:min      Meters
  ---------------------------------------------------------------------------------
<<<<<<< HEAD
  Node_02706           JUNCTION     2.18     4.08   100.92     0  03:44        0.00
  Node_02707           JUNCTION     0.74     2.50   101.93     0  03:09        0.00
  Node_02708           JUNCTION     0.66     2.59   102.35     0  03:08        0.00
  Node_02709           JUNCTION     0.75     2.81   102.44     0  03:08        0.00
  Node_02711           JUNCTION     0.42     2.52   102.43     0  03:08        0.00
  Node_02712           JUNCTION     0.43     2.50   102.40     0  03:08        0.00
  Node_02713           JUNCTION     0.47     2.49   102.34     0  03:08        0.00
  Node_02714           JUNCTION     0.19     1.95   102.35     0  03:08        0.00
  Node_02715           JUNCTION     0.47     2.36   102.17     0  03:08        0.00
  Node_02716           JUNCTION     0.52     2.30   102.02     0  03:08        0.00
  Node_02717           JUNCTION     0.57     2.33   101.96     0  03:09        0.00
  Node_02718           JUNCTION     0.58     2.34   101.94     0  03:09        0.00
  Node_02720           JUNCTION     0.60     2.38   101.95     0  03:09        0.00
  Node_02721           JUNCTION     0.89     2.71   101.96     0  03:09        0.00
  Node_02722           JUNCTION     0.13     0.19   101.99     0  03:10        0.00
  Node_02723           JUNCTION     0.82     2.63   101.93     0  03:09        0.00
  Node_02724           JUNCTION     0.67     2.45   101.86     0  03:09        0.00
  Node_02725           JUNCTION     0.70     2.42   101.79     0  03:09        0.00
  Node_02726           JUNCTION     0.77     2.45   101.71     0  03:09        0.00
  Node_02727           JUNCTION     0.86     2.50   101.63     0  03:09        0.00
  Node_02728           JUNCTION     0.33     1.55   101.63     0  03:09        0.00
  Node_02729           JUNCTION     0.89     2.47   101.53     0  03:09        0.00
  Node_02730           JUNCTION     0.91     2.40   101.42     0  03:09        0.00
  Node_02731           JUNCTION     1.32     2.70   101.29     0  03:09        0.00
  Node_02732           JUNCTION     0.89     2.19   101.21     0  03:09        0.00
  Node_02733           JUNCTION     0.87     2.22   101.23     0  03:09        0.00
  Node_02734           JUNCTION     1.14     2.53   101.24     0  03:09        0.00
  Node_02735           JUNCTION     1.04     2.43   101.24     0  03:09        0.00
  Node_02736           JUNCTION     1.21     2.63   101.24     0  03:09        0.00
  Node_02737           JUNCTION     1.18     2.62   101.24     0  03:09        0.00
  Node_02738           JUNCTION     0.99     2.47   101.24     0  03:09        0.00
  Node_02739           JUNCTION     0.84     2.37   101.24     0  03:09        0.00
  Node_02740           JUNCTION     0.84     2.38   101.22     0  03:09        0.00
  Node_02741           JUNCTION     0.57     1.93   101.23     0  03:09        0.00
  Node_02742           JUNCTION     0.83     2.39   101.20     0  03:09        0.00
  Node_02743           JUNCTION     1.23     2.79   101.16     0  03:10        0.00
  Node_02744           JUNCTION     0.50     1.82   101.17     0  03:10        0.00
  Node_02745           JUNCTION     0.94     2.51   101.13     0  03:45        0.00
  Node_02746           JUNCTION     0.82     2.42   101.11     0  03:44        0.00
  Node_02747           JUNCTION     0.14     0.75   101.11     0  03:44        0.00
  Node_02748           JUNCTION     0.11     0.66   101.11     0  03:44        0.00
  Node_02749           JUNCTION     0.80     2.43   101.07     0  03:45        0.00
  Node_02750           JUNCTION     0.78     2.44   101.05     0  03:45        0.00
  Node_02751           JUNCTION     0.74     2.42   101.01     0  03:44        0.00
  Node_02752           JUNCTION     0.73     2.44   100.98     0  03:44        0.00
  Node_02753           JUNCTION     0.73     2.47   100.95     0  03:45        0.00
  Node_02754           JUNCTION     0.70     2.60   100.92     0  03:45        0.00
  Node_02755           JUNCTION     1.63     3.53   100.92     0  03:45        0.00
  Node_02963           JUNCTION     0.43     2.06   101.97     0  03:09        0.00
  Node_02968           JUNCTION     0.24     1.12   101.24     0  03:09        0.00
  Node_02969           JUNCTION     0.29     1.28   101.17     0  03:10        0.00
  Node_02973           JUNCTION     1.17     3.03   100.92     0  03:46        0.00
  Node_02974           JUNCTION     1.08     3.32   100.45     0  03:45        0.00
  Node_02975           JUNCTION     1.09     3.33   100.47     0  03:45        0.00
  Node_02976           JUNCTION     1.16     3.47   100.66     0  03:45        0.00
  Node_02977           JUNCTION     1.23     3.61   100.94     0  03:45        0.00
  Node_02978           JUNCTION     1.16     3.52   101.05     0  03:44        0.00
  Node_02979           JUNCTION     0.99     3.20   100.32     0  03:45        0.00
  Node_02980           JUNCTION     0.89     3.07   100.16     0  03:47        0.00
  Node_02981           JUNCTION     0.83     3.05   100.00     0  03:47        0.00
  Node_02983           JUNCTION     0.24     1.12   101.24     0  03:09        0.00
  Node_02984           JUNCTION     1.56     3.93   100.91     0  03:45        0.00
  Node_03924           JUNCTION     0.12     1.00   101.82     0  02:56        0.00
  Node_03925           JUNCTION     0.41     2.05   102.41     0  03:14        0.00
  Node_03926           JUNCTION     0.07     0.94   102.41     0  03:14        0.00
  Node_03927           JUNCTION     0.38     2.03   102.41     0  03:14        0.00
  Node_03928           JUNCTION     0.40     2.06   102.41     0  03:14        0.00
  Node_03929           JUNCTION     0.40     2.08   102.39     0  03:14        0.00
  Node_03930           JUNCTION     0.42     2.12   102.37     0  03:12        0.00
  Node_03931           JUNCTION     0.41     2.11   102.36     0  03:13        0.00
  Node_03932           JUNCTION     0.44     2.14   102.31     0  03:08        0.00
  Node_03933           JUNCTION     0.44     2.12   102.24     0  03:09        0.00
  Node_03934           JUNCTION     0.15     1.38   102.25     0  03:13        0.00
  Node_03935           JUNCTION     0.48     2.17   102.14     0  03:14        0.00
  Node_03936           JUNCTION     0.49     2.12   102.05     0  03:11        0.00
  Node_03937           JUNCTION     1.24     1.77   101.93     0  03:00        0.00
  Node_03938           JUNCTION     0.88     3.27   102.46     0  02:54        0.00
  Node_03939           JUNCTION     0.95     3.42   102.45     0  02:54        0.00
  Node_03940           JUNCTION     0.99     3.48   102.41     0  02:54        0.00
  Node_03941           JUNCTION     1.05     3.53   102.34     0  02:54        0.00
  Node_03942           JUNCTION     1.07     3.53   102.28     0  03:09        0.00
  Node_03943           JUNCTION     1.12     3.58   102.19     0  02:54        0.00
  Node_03944           JUNCTION     1.19     3.69   102.17     0  02:54        0.00
  Node_03945           JUNCTION     1.24     3.78   102.20     0  02:54        0.00
  Node_03946           JUNCTION     1.31     3.90   102.26     0  02:54        0.00
  Node_03947           JUNCTION     1.53     4.32   102.21     0  02:57        0.00
  Node_03948           JUNCTION     1.48     4.31   102.16     0  02:57        0.00
  Node_03949           JUNCTION     1.58     4.41   102.11     0  02:57        0.00
  Node_03950           JUNCTION     1.44     4.26   102.03     0  03:15        0.00
  Node_03951           JUNCTION     1.42     4.19   101.88     0  03:15        0.00
  Node_03952           JUNCTION     1.42     4.08   101.67     0  03:15        0.00
  Node_03953           JUNCTION     1.31     3.87   101.44     0  03:45        0.00
  Node_03954           JUNCTION     2.18     4.64   101.22     0  03:44        0.00
  Node_03955           JUNCTION     1.11     3.49   100.98     0  03:44        0.00
  Node_04031           JUNCTION     0.24     1.03   102.26     0  02:54        0.00
  Node_04032           JUNCTION     1.23     3.91   102.26     0  02:54        0.00
  Node_04040           JUNCTION     0.44     1.87   102.41     0  02:55        0.00
  Node_04050           JUNCTION     0.31     1.44   102.40     0  03:51        0.00
  Node_04054           JUNCTION     0.10     1.27   102.41     0  03:15        0.00
  Node_04055           JUNCTION     0.24     1.50   102.31     0  03:10        0.00
  Node_04057           JUNCTION     0.23     1.60   101.91     0  02:57        0.00
  Node_04384           JUNCTION     1.39     3.72   101.30     0  03:15        0.00
  Node_04385           JUNCTION     1.11     3.49   101.41     0  03:15        0.00
  Node_04386           JUNCTION     1.11     3.52   101.46     0  03:15        0.00
  Node_04387           JUNCTION     1.11     3.54   101.51     0  03:15        0.00
  Node_04388           JUNCTION     1.11     3.56   101.56     0  03:15        0.00
  Node_04389           JUNCTION     0.29     1.21   101.58     0  03:15        0.00
  Node_04390           JUNCTION     1.10     3.56   101.58     0  03:15        0.00
  Node_04391           JUNCTION     1.11     3.57   101.63     0  03:15        0.00
  Node_04392           JUNCTION     1.22     3.69   101.65     0  03:15        0.00
  Node_04393           JUNCTION     1.10     3.56   101.67     0  03:15        0.00
  Node_04394           JUNCTION     0.46     2.03   101.67     0  03:15        0.00
  Node_04395           JUNCTION     1.10     3.55   101.70     0  03:15        0.00
  Node_04396           JUNCTION     1.09     3.52   101.72     0  03:15        0.00
  Node_04397           JUNCTION     0.36     1.82   101.72     0  03:15        0.00
  Node_04428           JUNCTION     1.11     3.52   101.74     0  03:15        0.00
  Node_04429           JUNCTION     1.10     3.50   101.75     0  03:15        0.00
  Node_04430           JUNCTION     1.09     3.47   101.75     0  03:14        0.00
  Node_04431           JUNCTION     0.94     3.18   101.75     0  03:15        0.00
  Node_04432           JUNCTION     0.88     3.07   101.74     0  03:14        0.00
  Node_04433           JUNCTION     0.75     2.87   101.75     0  03:15        0.00
  Node_04434           JUNCTION     1.00     3.16   101.75     0  03:15        0.00
  Node_04435           JUNCTION     0.87     2.97   101.74     0  03:14        0.00
  Node_04436           JUNCTION     1.27     3.34   101.74     0  03:14        0.00
  Node_04437           JUNCTION     1.42     3.44   101.73     0  03:15        0.00
  Node_04438           JUNCTION     1.72     3.73   101.74     0  03:11        0.00
  Node_04439           JUNCTION     0.79     2.78   101.76     0  03:11        0.00
  Node_04440           JUNCTION     0.79     2.76   101.77     0  03:15        0.00
  Node_04441           JUNCTION     0.61     2.44   101.77     0  03:14        0.00
  Node_04442           JUNCTION     0.87     2.81   101.78     0  03:14        0.00
  Node_04443           JUNCTION     0.74     2.65   101.79     0  03:13        0.00
  Node_04444           JUNCTION     0.74     2.62   101.79     0  03:11        0.00
  Node_04445           JUNCTION     0.70     2.55   101.81     0  03:11        0.00
  Node_04446           JUNCTION     0.68     2.50   101.83     0  03:02        0.00
  Node_04447           JUNCTION     0.65     2.42   101.86     0  03:02        0.00
  Node_04448           JUNCTION     0.67     2.45   101.90     0  03:02        0.00
  Node_04449           JUNCTION     0.68     2.48   101.93     0  03:02        0.00
  Node_04450           JUNCTION     0.83     2.62   101.94     0  03:02        0.00
  Node_04451           JUNCTION     0.67     2.40   101.95     0  03:02        0.00
  Node_04452           JUNCTION     0.49     2.17   101.99     0  03:02        0.00
  Node_04453           JUNCTION     0.36     1.78   102.00     0  03:02        0.00
  Node_04461           JUNCTION     0.64     2.29   101.91     0  03:02        0.00
  Node_04462           JUNCTION     0.64     2.33   101.98     0  03:05        0.00
  Node_04562           JUNCTION     0.56     2.46   102.05     0  03:01        0.00
  Node_04563           JUNCTION     0.78     2.92   102.04     0  03:01        0.00
  Node_04564           JUNCTION     0.64     2.68   102.06     0  03:01        0.00
  Node_04565           JUNCTION     0.66     2.72   102.09     0  03:01        0.00
  Node_04566           JUNCTION     0.78     2.88   102.08     0  03:01        0.00
  Node_04567           JUNCTION     0.72     2.84   102.05     0  03:01        0.00
  Node_04568           JUNCTION     0.73     2.84   102.03     0  03:01        0.00
  Node_04569           JUNCTION     0.84     3.04   102.01     0  03:01        0.00
  Node_04570           JUNCTION     0.54     2.29   102.02     0  03:01        0.00
  Node_04571           JUNCTION     0.84     2.99   101.92     0  03:01        0.00
  Node_04572           JUNCTION     2.21     4.43   101.96     0  03:03        0.00
  Node_04573           JUNCTION     1.88     4.15   101.98     0  03:03        0.00
  Node_04574           JUNCTION     2.42     3.71   102.01     0  03:03        0.00
  Node_04575           JUNCTION     2.34     4.69   102.01     0  03:03        0.00
  Node_04576           JUNCTION     0.93     3.31   101.96     0  03:03        0.00
  Node_04577           JUNCTION     0.95     3.33   101.91     0  03:05        0.00
  Node_04578           JUNCTION     0.97     3.36   101.87     0  03:11        0.00
  Node_04579           JUNCTION     1.00     3.41   101.82     0  03:15        0.00
  Node_04580           JUNCTION     0.48     1.98   101.76     0  03:02        0.00
  Node_04623           JUNCTION     0.37     1.75   101.41     0  03:15        0.00
  Node_04624           JUNCTION     0.53     2.28   101.74     0  03:15        0.00
  Node_04643           JUNCTION     0.46     2.04   101.95     0  03:02        0.00
  Node_04644           JUNCTION     0.45     1.96   101.80     0  03:15        0.00
  Node_04645           JUNCTION     0.63     2.05   101.65     0  03:02        0.00
  Node_04678           JUNCTION     0.44     2.01   101.74     0  03:15        0.00
  Node_04679           JUNCTION     0.23     1.23   101.41     0  03:15        0.00
  Node_04680           JUNCTION     1.16     3.46   101.23     0  03:15        0.00
  Node_04681           JUNCTION     1.13     3.42   101.14     0  03:45        0.00
  Node_04682           JUNCTION     0.19     0.98   101.99     0  03:03        0.00
  Node_04710           JUNCTION     0.53     2.02   102.01     0  04:30        0.00
  Node_04711           JUNCTION     0.59     2.59   102.58     0  05:24        0.00
  Node_04712           JUNCTION     0.60     2.61   102.62     0  03:06        0.00
  Node_04713           JUNCTION     0.57     2.58   102.63     0  04:28        0.00
[...]
  Link_01786                  60.858
  Link_01787                  32.209
  Link_01788                 524.877
  Link_01789                 534.938
  Link_01790                  16.165
  Link_01791                  15.836
  Link_01792                  15.047
  Link_01793                 581.978
  Link_01794                 590.573
  Link_01795                 599.013
  Link_01796                 607.491
  Link_01797                 614.449
  Link_01798                1018.281
  Link_01799                1013.163
  Link_01800                1024.182
  Link_01801                 647.104
  Link_01802                 969.345
  Link_01803                1004.764
  Link_01804                 856.057
  Link_01805                 847.199
  Link_01806                 837.849
  Link_01807                 828.327
  Link_01808                  14.506
  Link_01809                 805.637
  Link_01810                 789.007
  Link_01811                   7.360
  Link_01812                  52.670
  Link_01813                  42.966
  Link_01814                 753.533
  Link_01815                 744.117
  Link_01816                 725.734
  Link_01817                   9.107
  Link_01818                 691.833
  Link_01819                 670.377
  Link_01820                  12.547
  Link_01821                  25.677
  Link_01822                   5.728
  Link_01823                 182.226
  Link_01824                 179.642
>>>>>>> b040755ab93617f94f1ab7a7036927f36e763e5a
  Link_01825                  50.738
  Link_01826                  53.069
>>>>>>> ebd46bdc835ac17077bb70c3b6f6db3a4ee81ecd
  Link_01827                   2.188
  Link_01828                  57.634
  Link_01829                   5.713
  Link_01830                  65.790
  Link_01831                   2.188
  Link_01832                  70.376
  Link_01833                  72.715
  Link_01834                  77.419
  Link_01835                   2.188
<<<<<<< HEAD
  Link_01836                  39.912
=======
  Link_01836                  39.911
>>>>>>> ebd46bdc835ac17077bb70c3b6f6db3a4ee81ecd
  Link_01837                  20.058
  Link_01838                  27.888
  Link_01839                  37.486
  Link_01840                  35.245
  Link_01841                  33.017
<<<<<<< HEAD
  Link_01842                  26.841
  Link_01843                  22.286
  Link_01844                  20.050
  Link_02074                  10.832
  Link_02075                 134.260
  Link_02076                 152.753
  Link_02077                  18.379
  Link_02078                 178.883
  Link_02079                  12.739
  Link_02080                 199.442
  Link_02081                 207.104
  Link_02082                 214.765
  Link_02083                  12.745
  Link_02084                  11.163
  Link_02085                 392.364
  Link_02086                 380.938
  Link_02087                 376.395
  Link_02088                 371.556
  Link_02089                 366.720
  Link_02090                 474.492
  Link_02091                 466.876
  Link_02092                 459.194
  Link_02093                  10.905
  Link_02094                 433.050
  Link_02095                 425.418
  Link_02096                 429.267
  Link_02097                  17.950
  Link_02098                  55.603
  Link_02099                 421.781
  Link_02100                 414.323
  Link_02101                  27.190
  Link_02102                 403.330
  Link_02103                 379.965
  Link_02104                  23.632
  Link_02105                 301.233
  Link_02106                  14.964
  Link_02107                   7.512
  Link_02108                 294.365
  Link_02109                 286.384
  Link_02110                 264.833
  Link_02111                 174.793
  Link_02112                  16.225
  Link_02113                 128.622
  Link_02114                  35.721
  Link_02115                  33.392
  Link_02116                  31.137
  Link_02117                  28.927
  Link_02118                  26.690
=======
<<<<<<< HEAD
  Link_01842                  26.841
  Link_01843                  22.286
  Link_01844                  20.050
  Link_02074                  10.852
  Link_02075                 129.788
  Link_02076                 147.777
  Link_02077                  18.183
  Link_02078                 173.756
  Link_02079                  12.755
  Link_02080                 194.222
  Link_02081                 201.914
  Link_02082                 209.666
  Link_02083                  12.786
  Link_02084                  11.188
  Link_02085                 421.441
  Link_02086                 410.772
  Link_02087                 406.779
  Link_02088                 401.992
  Link_02089                 396.989
  Link_02090                 497.270
  Link_02091                 489.190
  Link_02092                 481.242
  Link_02093                  10.849
  Link_02094                 453.740
  Link_02095                 445.610
  Link_02096                 447.853
  Link_02097                  17.920
  Link_02098                  54.749
  Link_02099                 439.940
  Link_02100                 432.276
  Link_02101                  27.209
  Link_02102                 421.562
  Link_02103                 398.891
  Link_02104                  23.160
  Link_02105                 321.549
  Link_02106                  14.862
  Link_02107                   7.430
  Link_02108                 311.589
  Link_02109                 304.898
  Link_02110                 264.831
  Link_02111                 174.787
  Link_02112                  16.181
=======
  Link_01842                  26.840
  Link_01843                  22.286
  Link_01844                  20.050
  Link_02074                  10.857
  Link_02075                 134.924
  Link_02076                 153.557
  Link_02077                  18.260
  Link_02078                 179.663
  Link_02079                  12.714
  Link_02080                 200.258
  Link_02081                 207.886
  Link_02082                 215.552
  Link_02083                  12.744
  Link_02084                  11.132
  Link_02085                 432.823
  Link_02086                 421.752
  Link_02087                 417.685
  Link_02088                 412.927
  Link_02089                 408.237
  Link_02090                 510.678
  Link_02091                 503.081
  Link_02092                 495.379
  Link_02093                  10.943
  Link_02094                 469.158
  Link_02095                 461.468
  Link_02096                 463.495
  Link_02097                  17.897
  Link_02098                  53.339
  Link_02099                 455.936
  Link_02100                 448.019
  Link_02101                  26.167
  Link_02102                 433.050
  Link_02103                 407.985
  Link_02104                  23.244
  Link_02105                 324.182
  Link_02106                  14.884
  Link_02107                   7.550
  Link_02108                 318.723
  Link_02109                 311.574
  Link_02110                 264.834
  Link_02111                 174.787
  Link_02112                  16.251
>>>>>>> b040755ab93617f94f1ab7a7036927f36e763e5a
  Link_02113                 128.622
  Link_02114                  35.722
  Link_02115                  33.393
  Link_02116                  31.138
  Link_02117                  28.928
  Link_02118                  26.691
>>>>>>> ebd46bdc835ac17077bb70c3b6f6db3a4ee81ecd
  Link_02123                   5.734
  Link_02124                   7.952
  Link_02125                  10.176
  Link_02126                  12.354
<<<<<<< HEAD
  Link_02127                  24.454
  Link_02128                  22.217
  Link_02129                  20.015
  Link_02130                  17.805
  Link_02131                  15.563
  Link_02132                  13.313
  Link_02133                  11.065
  Link_02134                 130.991
  Link_02135                 133.281
  Link_02136                 141.377
  Link_02137                   5.733
  Link_02138                 161.255
  Link_02139                 158.890
  Link_02140                 156.461
  Link_02141                 154.215
  Link_02142                 151.719
  Link_02143                 143.706
  Link_02383                   7.691
  Link_02384                  11.373
  Link_02385                  18.314
  Link_02386                  25.169
  Link_02387                  50.921
  Link_02388                  57.872
  Link_02389                  23.523
  Link_02390                  65.169
  Link_02391                  95.943
  Link_02392                  33.894
  Link_02393                 136.361
  Link_05459                  79.080
  Link_05460                 143.004
  Link_05461                 163.960
  Link_05462                 399.787
  Link_05463                 592.049
  Link_05464                  33.022
  Link_05496                1663.950
  Link_05662                  44.846
  Link_05663                   9.342
  Link_05664                  34.611
  Link_05665                 372.007
  Link_05677                 249.357
  Link_05678                  18.016
  Link_05720                 919.906
  Link_05721                 737.500
  Link_05722                  16.266
  Link_05723                  90.520
  Link_05725                  14.598
  Link_05726                 397.689
  Link_05727                   9.100
  Link_05728                 441.028
  Link_05729                 410.753
  Link_05730                 262.362
  Link_05731                 177.034
  Link_05732                 172.505
  Link_05742                  25.541
  Link_05743                 114.485
  Link_05744                 222.798
  Link_05752                 166.499
  Link_05753                   3.968
  Link_05754                  24.543
  Link_05791                   5.729
  Link_05812                 220.473
  Link_05813                 135.943
  Link_05814                 105.721
  Link_05815                 120.469
  Link_05816                  18.168
  Link_05817                  26.230
  Link_05818                  11.066
  Link_05983                  27.102
  Link_05984                  19.660
  Link_06039                   2.185
  Link_07220                 127.695
  Link_07221                 135.048
  Link_07222                 135.588
  Link_07230                 143.178
  Link_07231                 151.107
  Link_07233                 290.450
  Link_07234                 298.074
  Link_07235                 132.647
  Link_07270                  33.024
  Link_07271                  52.252
  Link_07274                  18.915
  Link_07277                  71.525
  Link_07278                  91.848
  Link_07295                  86.645
  Link_07296                  96.666
  Link_07297                 120.188
  Link_07303                  10.893
  Link_07306                  33.949
  Link_07321                  11.065
  Link_07464                  21.790
  Link_07578                  25.327
  Link_07579                 370.262
  Link_07580                 335.190
  Link_07687                  19.786
  Link_07865                  11.050
  Link_08891                  12.628
  Link_08912                  34.229
  Link1_to_ChengXi          1753.065
  Link2_to_ChengXi           384.552
  Link3_to_ChengXi           306.326
  Link_to_LaoDongLu          267.193
  Pump_ChengXi1             1194.652
  Pump_ChengXi2              529.842
  Pump_ChengXi3              423.455
  Pump_ChengXi4              406.944
  Pump_LaoDongLu1            155.284
  Pump_LaoDongLu2             70.406
  Pump_LaoDongLu3             53.714
  outfallpump               1389.773
  

  Analysis begun on:  Mon Aug 16 03:45:04 2021
  Analysis ended on:  Mon Aug 16 03:45:06 2021
  Total elapsed time: 00:00:02
=======
  Link_02127                  24.455
  Link_02128                  22.218
  Link_02129                  20.016
  Link_02130                  17.806
  Link_02131                  15.563
  Link_02132                  13.313
  Link_02133                  11.065
  Link_02134                 130.992
  Link_02135                 133.275
<<<<<<< HEAD
  Link_02136                 141.371
  Link_02137                   5.733
  Link_02138                 161.249
  Link_02139                 158.883
  Link_02140                 156.454
  Link_02141                 154.209
  Link_02142                 151.713
  Link_02143                 143.700
  Link_02383                   7.749
  Link_02384                  11.268
  Link_02385                  18.165
  Link_02386                  25.305
  Link_02387                  51.025
  Link_02388                  57.924
  Link_02389                  23.341
  Link_02390                  65.143
  Link_02391                  95.481
  Link_02392                  33.993
  Link_02393                 135.701
  Link_05459                  77.147
  Link_05460                 142.886
  Link_05461                 161.718
  Link_05462                 391.921
  Link_05463                 588.410
  Link_05464                  34.021
  Link_05496                1668.624
  Link_05662                  44.934
  Link_05663                   9.357
  Link_05664                  35.385
  Link_05665                 370.487
  Link_05677                 247.843
  Link_05678                  18.016
  Link_05720                 932.558
  Link_05721                 754.713
  Link_05722                  16.333
  Link_05723                  90.520
  Link_05725                  14.598
  Link_05726                 426.448
  Link_05727                   9.076
  Link_05728                 462.641
  Link_05729                 429.230
  Link_05730                 262.360
  Link_05731                 177.032
  Link_05732                 172.498
  Link_05742                  25.668
  Link_05743                 111.663
  Link_05744                 217.891
  Link_05752                 163.599
  Link_05753                   3.968
  Link_05754                  24.543
  Link_05791                   5.729
  Link_05812                 220.470
  Link_05813                 136.017
  Link_05814                 105.752
  Link_05815                 120.451
  Link_05816                  18.168
  Link_05817                  26.229
  Link_05818                  11.066
  Link_05983                  27.115
  Link_05984                  19.659
  Link_06039                   2.185
  Link_07220                 124.274
  Link_07221                 131.665
  Link_07222                 131.520
  Link_07230                 139.111
  Link_07231                 147.066
  Link_07233                 286.012
  Link_07234                 293.657
  Link_07235                 132.277
  Link_07270                  32.325
  Link_07271                  48.274
  Link_07274                  19.136
  Link_07277                  70.197
  Link_07278                  85.231
  Link_07295                  82.394
  Link_07296                  93.272
  Link_07297                 116.749
  Link_07303                  10.905
  Link_07306                  34.333
  Link_07321                  11.065
  Link_07464                  21.850
  Link_07578                  25.223
  Link_07579                 388.655
  Link_07580                 354.810
  Link_07687                  19.799
  Link_07865                  11.050
  Link_08891                  12.699
  Link_08912                  34.232
  Link1_to_ChengXi          1755.802
  Link2_to_ChengXi           383.041
  Link3_to_ChengXi           301.885
  Link_to_LaoDongLu          267.191
  Pump_ChengXi1              918.901
  Pump_ChengXi2              724.999
  Pump_ChengXi3              477.679
  Pump_ChengXi4              419.092
  Pump_LaoDongLu1            173.121
  Pump_LaoDongLu2             63.054
  Pump_LaoDongLu3             63.054
  outfallpump               1849.974
  

  Analysis begun on:  Mon Aug 16 03:27:16 2021
  Analysis ended on:  Mon Aug 16 03:27:18 2021
  Total elapsed time: 00:00:02
=======
  Link_02136                 141.372
  Link_02137                   5.733
  Link_02138                 161.249
  Link_02139                 158.884
  Link_02140                 156.455
  Link_02141                 154.210
  Link_02142                 151.713
  Link_02143                 143.701
  Link_02383                   7.732
  Link_02384                  11.544
  Link_02385                  18.456
  Link_02386                  25.219
  Link_02387                  51.232
  Link_02388                  58.108
  Link_02389                  23.530
  Link_02390                  65.371
  Link_02391                  95.969
  Link_02392                  33.901
  Link_02393                 136.344
  Link_05459                  84.112
  Link_05460                 147.403
  Link_05461                 168.751
  Link_05462                 380.252
  Link_05463                 573.524
  Link_05464                  33.698
  Link_05496                1680.182
  Link_05662                  44.805
  Link_05663                   9.363
  Link_05664                  34.362
  Link_05665                 373.156
  Link_05677                 250.450
  Link_05678                  18.009
  Link_05720                 959.519
  Link_05721                 778.921
  Link_05722                  16.263
  Link_05723                  90.520
  Link_05725                  14.598
  Link_05726                 438.358
  Link_05727                   9.127
  Link_05728                 477.694
  Link_05729                 441.421
  Link_05730                 262.362
  Link_05731                 177.033
  Link_05732                 172.498
  Link_05742                  25.544
  Link_05743                 114.854
  Link_05744                 223.617
  Link_05752                 161.033
  Link_05753                   3.968
  Link_05754                  24.543
  Link_05791                   5.729
  Link_05812                 220.576
  Link_05813                 136.106
  Link_05814                 105.744
  Link_05815                 120.477
  Link_05816                  18.168
  Link_05817                  26.229
  Link_05818                  11.066
  Link_05983                  27.116
  Link_05984                  19.654
  Link_06039                   2.185
  Link_07220                 140.009
  Link_07221                 147.376
  Link_07222                 147.489
  Link_07230                 155.080
  Link_07231                 162.992
  Link_07233                 302.223
  Link_07234                 309.841
  Link_07235                 132.506
  Link_07270                  36.220
  Link_07271                  58.985
  Link_07274                  19.342
  Link_07277                  78.568
  Link_07278                 101.370
  Link_07295                  97.536
  Link_07296                 108.945
  Link_07297                 132.536
  Link_07303                  11.058
  Link_07306                  34.530
  Link_07321                  11.065
  Link_07464                  21.807
  Link_07578                  25.435
  Link_07579                 396.548
  Link_07580                 360.584
  Link_07687                  19.772
  Link_07865                  11.050
  Link_08891                  12.666
  Link_08912                  34.224
  Link1_to_ChengXi          1767.232
  Link2_to_ChengXi           385.676
  Link3_to_ChengXi           318.117
  Link_to_LaoDongLu          267.194
  Pump_ChengXi1             1087.852
  Pump_ChengXi2              533.840
  Pump_ChengXi3              478.755
  Pump_ChengXi4              451.470
  Pump_LaoDongLu1            163.405
  Pump_LaoDongLu2             80.537
  Pump_LaoDongLu3             61.819
  outfallpump               1479.874
  

  Analysis begun on:  Tue Aug 17 21:44:57 2021
  Analysis ended on:  Tue Aug 17 21:45:00 2021
  Total elapsed time: 00:00:03
>>>>>>> b040755ab93617f94f1ab7a7036927f36e763e5a
>>>>>>> ebd46bdc835ac17077bb70c3b6f6db3a4ee81ecd
