
  EPA STORM WATER MANAGEMENT MODEL - VERSION 5.1 (Build 5.3.0.dev0)
  --------------------------------------------------------------

  WARNING 04: minimum elevation drop used for Conduit Link_01776
  WARNING 04: minimum elevation drop used for Conduit Link_01779
  WARNING 04: minimum elevation drop used for Conduit Link_07234
  WARNING 02: maximum depth increased for Node Node_06087
  
  *********************************************************
  NOTE: The summary statistics displayed in this report are
  based on results found at every computational time step,  
  not just on results from each reporting time step.
  *********************************************************
  
  ****************
  Analysis Options
  ****************
  Flow Units ............... CMS
  Process Models:
    Rainfall/Runoff ........ YES
    RDII ................... NO
    Snowmelt ............... NO
    Groundwater ............ NO
    Flow Routing ........... YES
    Ponding Allowed ........ YES
    Water Quality .......... YES
  Infiltration Method ...... HORTON
  Flow Routing Method ...... DYNWAVE
  Surcharge Method ......... EXTRAN
  Starting Date ............ 01/02/2011 00:00:00
  Ending Date .............. 01/02/2011 06:00:00
  Antecedent Dry Days ...... 0.0
  Report Time Step ......... 00:15:00
  Wet Time Step ............ 00:05:00
  Dry Time Step ............ 01:00:00
  Routing Time Step ........ 60.00 sec
  Variable Time Step ....... YES
  Maximum Trials ........... 8
  Number of Threads ........ 4
  Head Tolerance ........... 0.001500 m
  
  
  **************************        Volume         Depth
  Runoff Quantity Continuity     hectare-m            mm
  **************************     ---------       -------
  Total Precipitation ......         0.858        30.000
  Evaporation Loss .........         0.000         0.000
  Infiltration Loss ........         0.050         1.764
  Surface Runoff ...........         0.810        28.308
  Final Storage ............         0.000         0.009
  Continuity Error (%) .....        -0.272
  
  
  **************************           COD
  Runoff Quality Continuity             kg
  **************************    ----------
  Initial Buildup ..........         0.000
  Surface Buildup ..........         0.000
  Wet Deposition ...........      2256.553
  Sweeping Removal .........         0.000
  Infiltration Loss ........       132.697
  BMP Removal ..............         0.000
  Surface Runoff ...........      2129.283
  Remaining Buildup ........         0.706
  Continuity Error (%) .....        -0.272
  
  
  **************************        Volume        Volume
  Flow Routing Continuity        hectare-m      10^6 ltr
  **************************     ---------     ---------
  Dry Weather Inflow .......         0.153         1.529
  Wet Weather Inflow .......         0.810         8.096
  Groundwater Inflow .......         0.000         0.000
  RDII Inflow ..............         0.000         0.000
  External Inflow ..........         0.000         0.000
<<<<<<< HEAD
  External Outflow .........         0.726         7.265
  Flooding Loss ............         0.266         2.664
  Evaporation Loss .........         0.000         0.000
  Exfiltration Loss ........         0.000         0.000
  Initial Stored Volume ....         0.077         0.773
  Final Stored Volume ......         0.049         0.488
  Continuity Error (%) .....        -0.181
=======
<<<<<<< HEAD
  External Outflow .........         0.722         7.219
  Flooding Loss ............         0.266         2.662
  Evaporation Loss .........         0.000         0.000
  Exfiltration Loss ........         0.000         0.000
  Initial Stored Volume ....         0.077         0.773
  Final Stored Volume ......         0.056         0.559
  Continuity Error (%) .....        -0.405
=======
  External Outflow .........         0.728         7.281
  Flooding Loss ............         0.265         2.648
  Evaporation Loss .........         0.000         0.000
  Exfiltration Loss ........         0.000         0.000
  Initial Stored Volume ....         0.077         0.773
  Final Stored Volume ......         0.050         0.502
  Continuity Error (%) .....        -0.313
>>>>>>> b040755ab93617f94f1ab7a7036927f36e763e5a
>>>>>>> ebd46bdc835ac17077bb70c3b6f6db3a4ee81ecd
  
  
  **************************           COD
  Quality Routing Continuity            kg
  **************************    ----------
  Dry Weather Inflow .......       845.606
  Wet Weather Inflow .......      2129.176
  Groundwater Inflow .......         0.000
  RDII Inflow ..............         0.000
  External Inflow ..........         0.000
<<<<<<< HEAD
  External Outflow .........      2052.937
  Flooding Loss ............       772.080
  Exfiltration Loss ........         0.000
  Mass Reacted .............         0.000
  Initial Stored Mass ......       427.257
  Final Stored Mass ........       197.372
  Continuity Error (%) .....        11.159
=======
<<<<<<< HEAD
  External Outflow .........      2195.078
  Flooding Loss ............       772.686
  Exfiltration Loss ........         0.000
  Mass Reacted .............         0.000
  Initial Stored Mass ......       427.257
  Final Stored Mass ........       221.621
  Continuity Error (%) .....         6.251
=======
  External Outflow .........      2077.449
  Flooding Loss ............       770.395
  Exfiltration Loss ........         0.000
  Mass Reacted .............         0.000
  Initial Stored Mass ......       427.257
  Final Stored Mass ........       201.566
  Continuity Error (%) .....        10.365
>>>>>>> b040755ab93617f94f1ab7a7036927f36e763e5a
>>>>>>> ebd46bdc835ac17077bb70c3b6f6db3a4ee81ecd
  
  
  *************************
  Highest Continuity Errors
  *************************
<<<<<<< HEAD
  Node Node_05329 (-1.45%)
  Node Node_05327 (1.40%)
  Node Node_04570 (-1.24%)
=======
<<<<<<< HEAD
  Node Node_05327 (2.39%)
  Node Node_05329 (-1.94%)
  Node Node_04570 (-1.45%)
  Node Node_05317 (1.09%)
  Node Node_05312 (1.08%)
=======
  Node Node_05327 (1.82%)
  Node Node_05329 (-1.64%)
  Node Node_04570 (-1.58%)
>>>>>>> b040755ab93617f94f1ab7a7036927f36e763e5a
>>>>>>> ebd46bdc835ac17077bb70c3b6f6db3a4ee81ecd
  
  
  ***************************
  Time-Step Critical Elements
  ***************************
<<<<<<< HEAD
  Link Link_01778 (92.92%)
  Link Link_01558 (5.63%)
  Link Link_01780 (1.06%)
=======
<<<<<<< HEAD
  Link Link_01778 (93.94%)
  Link Link_01558 (5.23%)
=======
  Link Link_01778 (92.34%)
  Link Link_01558 (6.20%)
>>>>>>> b040755ab93617f94f1ab7a7036927f36e763e5a
>>>>>>> ebd46bdc835ac17077bb70c3b6f6db3a4ee81ecd
  
  
  ********************************
  Highest Flow Instability Indexes
  ********************************
<<<<<<< HEAD
  Link Link_01335 (54)
  Link Link_01336 (54)
  Link Link_01323 (53)
  Link Link_01778 (50)
  Link Link_01325 (49)
=======
<<<<<<< HEAD
  Link Link_01810 (56)
  Link Link_01336 (53)
  Link Link_01558 (53)
  Link Link_01335 (53)
  Link Link_01323 (52)
=======
  Link Link_01558 (54)
  Link Link_01778 (51)
  Link Link_01810 (50)
  Link Link_01336 (48)
  Link Link_01335 (48)
>>>>>>> b040755ab93617f94f1ab7a7036927f36e763e5a
>>>>>>> ebd46bdc835ac17077bb70c3b6f6db3a4ee81ecd
  
  
  *************************
  Routing Time Step Summary
  *************************
  Minimum Time Step           :     5.00 sec
  Average Time Step           :     5.00 sec
  Maximum Time Step           :     5.00 sec
  Percent in Steady State     :     0.00
<<<<<<< HEAD
  Average Iterations per Step :     4.45
  Percent Not Converging      :    15.81
=======
<<<<<<< HEAD
  Average Iterations per Step :     5.17
  Percent Not Converging      :    17.36
=======
  Average Iterations per Step :     4.80
  Percent Not Converging      :    14.91
>>>>>>> b040755ab93617f94f1ab7a7036927f36e763e5a
>>>>>>> ebd46bdc835ac17077bb70c3b6f6db3a4ee81ecd
  
  
  ***************************
  Subcatchment Runoff Summary
  ***************************
  
  ------------------------------------------------------------------------------------------------------------------------------
                            Total      Total      Total      Total     Imperv       Perv      Total       Total     Peak  Runoff
                           Precip      Runon       Evap      Infil     Runoff     Runoff     Runoff      Runoff   Runoff   Coeff
  Subcatchment                 mm         mm         mm         mm         mm         mm         mm    10^6 ltr      CMS
  ------------------------------------------------------------------------------------------------------------------------------
  2707                      30.00       0.00       0.00       1.77       7.50      20.80      28.30        0.03     0.00   0.943
  2708                      30.00       0.00       0.00       1.77       7.50      20.80      28.30        0.03     0.00   0.943
  2709                      30.00       0.00       0.00       1.77       7.50      20.80      28.30        0.03     0.00   0.943
  2710                      30.00       0.00       0.00       1.77       7.50      20.80      28.30        0.03     0.00   0.943
  2712                      30.00       0.00       0.00       1.77       7.50      20.80      28.30        0.03     0.00   0.943
  2713                      30.00       0.00       0.00       1.77       7.50      20.80      28.30        0.03     0.00   0.943
  2714                      30.00       0.00       0.00       1.77       7.50      20.80      28.30        0.03     0.00   0.943
  2715                      30.00       0.00       0.00       1.77       7.50      20.80      28.30        0.03     0.00   0.943
  2716                      30.00       0.00       0.00       1.77       7.50      20.80      28.30        0.03     0.00   0.943
  2717                      30.00       0.00       0.00       1.77       7.50      20.80      28.30        0.03     0.00   0.943
  2718                      30.00       0.00       0.00       1.77       7.50      20.80      28.30        0.03     0.00   0.943
  2719                      30.00       0.00       0.00       1.77       7.50      20.80      28.30        0.03     0.00   0.943
  2721                      30.00       0.00       0.00       1.77       7.50      20.80      28.30        0.03     0.00   0.943
  2722                      30.00       0.00       0.00       1.77       7.50      20.80      28.30        0.03     0.00   0.943
  2723                      30.00       0.00       0.00       1.77       7.50      20.80      28.30        0.03     0.00   0.943
  2724                      30.00       0.00       0.00       1.77       7.50      20.80      28.30        0.03     0.00   0.943
  2725                      30.00       0.00       0.00       1.77       7.50      20.80      28.30        0.03     0.00   0.943
  2726                      30.00       0.00       0.00       1.77       7.50      20.80      28.30        0.03     0.00   0.943
  2727                      30.00       0.00       0.00       1.77       7.50      20.80      28.30        0.03     0.00   0.943
  2728                      30.00       0.00       0.00       1.77       7.50      20.80      28.30        0.03     0.00   0.943
  2729                      30.00       0.00       0.00       1.77       7.50      20.80      28.30        0.03     0.00   0.943
  2730                      30.00       0.00       0.00       1.77       7.50      20.80      28.30        0.03     0.00   0.943
  2731                      30.00       0.00       0.00       1.77       7.50      20.80      28.30        0.03     0.00   0.943
  2732                      30.00       0.00       0.00       1.77       7.50      20.80      28.30        0.03     0.00   0.943
  2733                      30.00       0.00       0.00       1.77       7.50      20.80      28.30        0.03     0.00   0.943
  2734                      30.00       0.00       0.00       1.77       7.50      20.80      28.30        0.03     0.00   0.943
  2735                      30.00       0.00       0.00       1.77       7.50      20.80      28.30        0.03     0.00   0.943
  2736                      30.00       0.00       0.00       1.77       7.50      20.80      28.30        0.03     0.00   0.943
  2737                      30.00       0.00       0.00       1.77       7.50      20.80      28.30        0.03     0.00   0.943
  2738                      30.00       0.00       0.00       1.77       7.50      20.80      28.30        0.03     0.00   0.943
  2739                      30.00       0.00       0.00       1.77       7.50      20.80      28.30        0.03     0.00   0.943
  2740                      30.00       0.00       0.00       1.77       7.50      20.80      28.30        0.03     0.00   0.943
  2741                      30.00       0.00       0.00       1.77       7.50      20.80      28.30        0.03     0.00   0.943
  2742                      30.00       0.00       0.00       1.77       7.50      20.80      28.30        0.03     0.00   0.943
  2743                      30.00       0.00       0.00       1.77       7.50      20.80      28.30        0.03     0.00   0.943
  2744                      30.00       0.00       0.00       1.77       7.50      20.80      28.30        0.03     0.00   0.943
  2745                      30.00       0.00       0.00       1.77       7.50      20.80      28.30        0.03     0.00   0.943
  2746                      30.00       0.00       0.00       1.77       7.50      20.80      28.30        0.03     0.00   0.943
  2747                      30.00       0.00       0.00       1.77       7.50      20.80      28.30        0.03     0.00   0.943
  2748                      30.00       0.00       0.00       1.77       7.50      20.80      28.30        0.03     0.00   0.943
  2749                      30.00       0.00       0.00       1.77       7.50      20.80      28.30        0.03     0.00   0.943
  2750                      30.00       0.00       0.00       1.77       7.50      20.80      28.30        0.03     0.00   0.943
  2751                      30.00       0.00       0.00       1.77       7.50      20.80      28.30        0.03     0.00   0.943
  2752                      30.00       0.00       0.00       1.77       7.50      20.80      28.30        0.03     0.00   0.943
  2753                      30.00       0.00       0.00       1.77       7.50      20.80      28.30        0.03     0.00   0.943
  2754                      30.00       0.00       0.00       1.77       7.50      20.80      28.30        0.03     0.00   0.943
  2755                      30.00       0.00       0.00       1.77       7.50      20.80      28.30        0.03     0.00   0.943
  2756                      30.00       0.00       0.00       1.77       7.50      20.80      28.30        0.03     0.00   0.943
  2964                      30.00       0.00       0.00       1.77       7.50      20.80      28.30        0.03     0.00   0.943
  2969                      30.00       0.00       0.00       1.77       7.50      20.80      28.30        0.03     0.00   0.943
  2970                      30.00       0.00       0.00       1.77       7.50      20.80      28.30        0.03     0.00   0.943
  2974                      30.00       0.00       0.00       1.77       7.50      20.80      28.30        0.03     0.00   0.943
  2975                      30.00       0.00       0.00       1.77       7.50      20.80      28.30        0.03     0.00   0.943
  2976                      30.00       0.00       0.00       1.77       7.50      20.80      28.30        0.03     0.00   0.943
  2977                      30.00       0.00       0.00       1.77       7.50      20.80      28.30        0.03     0.00   0.943
  2978                      30.00       0.00       0.00       1.77       7.50      20.80      28.30        0.03     0.00   0.943
  2979                      30.00       0.00       0.00       1.77       7.50      20.80      28.30        0.03     0.00   0.943
  2980                      30.00       0.00       0.00       1.77       7.50      20.80      28.30        0.03     0.00   0.943
  2981                      30.00       0.00       0.00       1.77       7.50      20.80      28.30        0.03     0.00   0.943
  2982                      30.00       0.00       0.00       1.77       7.50      20.80      28.30        0.03     0.00   0.943
  2984                      30.00       0.00       0.00       1.77       7.50      20.80      28.30        0.03     0.00   0.943
  2985                      30.00       0.00       0.00       1.77       7.50      20.80      28.30        0.03     0.00   0.943
  3925                      30.00       0.00       0.00       1.77       7.50      20.80      28.30        0.03     0.00   0.943
  3926                      30.00       0.00       0.00       1.77       7.50      20.80      28.30        0.03     0.00   0.943
  3927                      30.00       0.00       0.00       1.77       7.50      20.80      28.30        0.03     0.00   0.943
  3928                      30.00       0.00       0.00       1.77       7.50      20.80      28.30        0.03     0.00   0.943
  3929                      30.00       0.00       0.00       1.77       7.50      20.80      28.30        0.03     0.00   0.943
  3930                      30.00       0.00       0.00       1.77       7.50      20.80      28.30        0.03     0.00   0.943
  3931                      30.00       0.00       0.00       1.77       7.50      20.80      28.30        0.03     0.00   0.943
  3932                      30.00       0.00       0.00       1.77       7.50      20.80      28.30        0.03     0.00   0.943
  3933                      30.00       0.00       0.00       1.77       7.50      20.80      28.30        0.03     0.00   0.943
  3934                      30.00       0.00       0.00       1.77       7.50      20.80      28.30        0.03     0.00   0.943
  3935                      30.00       0.00       0.00       1.77       7.50      20.80      28.30        0.03     0.00   0.943
  3936                      30.00       0.00       0.00       1.77       7.50      20.80      28.30        0.03     0.00   0.943
  3937                      30.00       0.00       0.00       1.77       7.50      20.80      28.30        0.03     0.00   0.943
  3938                      30.00       0.00       0.00       1.77       7.50      20.80      28.30        0.03     0.00   0.943
  3939                      30.00       0.00       0.00       1.77       7.50      20.80      28.30        0.03     0.00   0.943
  3940                      30.00       0.00       0.00       1.77       7.50      20.80      28.30        0.03     0.00   0.943
  3941                      30.00       0.00       0.00       1.77       7.50      20.80      28.30        0.03     0.00   0.943
  3942                      30.00       0.00       0.00       1.77       7.50      20.80      28.30        0.03     0.00   0.943
  3943                      30.00       0.00       0.00       1.77       7.50      20.80      28.30        0.03     0.00   0.943
  3944                      30.00       0.00       0.00       1.77       7.50      20.80      28.30        0.03     0.00   0.943
  3945                      30.00       0.00       0.00       1.77       7.50      20.80      28.30        0.03     0.00   0.943
  3946                      30.00       0.00       0.00       1.77       7.50      20.80      28.30        0.03     0.00   0.943
  3947                      30.00       0.00       0.00       1.77       7.50      20.80      28.30        0.03     0.00   0.943
  3948                      30.00       0.00       0.00       1.77       7.50      20.80      28.30        0.03     0.00   0.943
  3949                      30.00       0.00       0.00       1.77       7.50      20.80      28.30        0.03     0.00   0.943
  3950                      30.00       0.00       0.00       1.77       7.50      20.80      28.30        0.03     0.00   0.943
  3951                      30.00       0.00       0.00       1.77       7.50      20.80      28.30        0.03     0.00   0.943
  3952                      30.00       0.00       0.00       1.77       7.50      20.80      28.30        0.03     0.00   0.943
  3953                      30.00       0.00       0.00       1.77       7.50      20.80      28.30        0.03     0.00   0.943
  3954                      30.00       0.00       0.00       1.77       7.50      20.80      28.30        0.03     0.00   0.943
  3955                      30.00       0.00       0.00       1.77       7.50      20.80      28.30        0.03     0.00   0.943
  3956                      30.00       0.00       0.00       1.77       7.50      20.80      28.30        0.03     0.00   0.943
  4032                      30.00       0.00       0.00       1.77       7.50      20.80      28.30        0.03     0.00   0.943
  4033                      30.00       0.00       0.00       1.77       7.50      20.80      28.30        0.03     0.00   0.943
  4041                      30.00       0.00       0.00       1.77       7.50      20.80      28.30        0.03     0.00   0.943
  4051                      30.00       0.00       0.00       1.77       7.50      20.80      28.30        0.03     0.00   0.943
  4055                      30.00       0.00       0.00       1.77       7.50      20.80      28.30        0.03     0.00   0.943
  4056                      30.00       0.00       0.00       1.77       7.50      20.80      28.30        0.03     0.00   0.943
  4058                      30.00       0.00       0.00       1.77       7.50      20.80      28.30        0.03     0.00   0.943
  4385                      30.00       0.00       0.00       1.77       7.50      20.80      28.30        0.03     0.00   0.943
  4386                      30.00       0.00       0.00       1.77       7.50      20.80      28.30        0.03     0.00   0.943
  4387                      30.00       0.00       0.00       1.77       7.50      20.80      28.30        0.03     0.00   0.943
  4388                      30.00       0.00       0.00       1.77       7.50      20.80      28.30        0.03     0.00   0.943
  4389                      30.00       0.00       0.00       1.77       7.50      20.80      28.30        0.03     0.00   0.943
  4390                      30.00       0.00       0.00       1.77       7.50      20.80      28.30        0.03     0.00   0.943
  4391                      30.00       0.00       0.00       1.77       7.50      20.80      28.30        0.03     0.00   0.943
  4392                      30.00       0.00       0.00       1.77       7.50      20.80      28.30        0.03     0.00   0.943
  4393                      30.00       0.00       0.00       1.77       7.50      20.80      28.30        0.03     0.00   0.943
  4394                      30.00       0.00       0.00       1.77       7.50      20.80      28.30        0.03     0.00   0.943
  4395                      30.00       0.00       0.00       1.77       7.50      20.80      28.30        0.03     0.00   0.943
  4396                      30.00       0.00       0.00       1.77       7.50      20.80      28.30        0.03     0.00   0.943
  4397                      30.00       0.00       0.00       1.77       7.50      20.80      28.30        0.03     0.00   0.943
  4398                      30.00       0.00       0.00       1.77       7.50      20.80      28.30        0.03     0.00   0.943
  4429                      30.00       0.00       0.00       1.77       7.50      20.80      28.30        0.03     0.00   0.943
  4430                      30.00       0.00       0.00       1.77       7.50      20.80      28.30        0.03     0.00   0.943
  4431                      30.00       0.00       0.00       1.77       7.50      20.80      28.30        0.03     0.00   0.943
  4432                      30.00       0.00       0.00       1.77       7.50      20.80      28.30        0.03     0.00   0.943
  4433                      30.00       0.00       0.00       1.77       7.50      20.80      28.30        0.03     0.00   0.943
  4434                      30.00       0.00       0.00       1.77       7.50      20.80      28.30        0.03     0.00   0.943
  4435                      30.00       0.00       0.00       1.77       7.50      20.80      28.30        0.03     0.00   0.943
  4436                      30.00       0.00       0.00       1.77       7.50      20.80      28.30        0.03     0.00   0.943
  4437                      30.00       0.00       0.00       1.77       7.50      20.80      28.30        0.03     0.00   0.943
  4438                      30.00       0.00       0.00       1.77       7.50      20.80      28.30        0.03     0.00   0.943
  4439                      30.00       0.00       0.00       1.77       7.50      20.80      28.30        0.03     0.00   0.943
  4440                      30.00       0.00       0.00       1.77       7.50      20.80      28.30        0.03     0.00   0.943
  4441                      30.00       0.00       0.00       1.77       7.50      20.80      28.30        0.03     0.00   0.943
  4442                      30.00       0.00       0.00       1.77       7.50      20.80      28.30        0.03     0.00   0.943
  4443                      30.00       0.00       0.00       1.77       7.50      20.80      28.30        0.03     0.00   0.943
  4444                      30.00       0.00       0.00       1.77       7.50      20.80      28.30        0.03     0.00   0.943
  4445                      30.00       0.00       0.00       1.77       7.50      20.80      28.30        0.03     0.00   0.943
  4446                      30.00       0.00       0.00       1.77       7.50      20.80      28.30        0.03     0.00   0.943
  4447                      30.00       0.00       0.00       1.77       7.50      20.80      28.30        0.03     0.00   0.943
  4448                      30.00       0.00       0.00       1.77       7.50      20.80      28.30        0.03     0.00   0.943
  4449                      30.00       0.00       0.00       1.77       7.50      20.80      28.30        0.03     0.00   0.943
  4450                      30.00       0.00       0.00       1.77       7.50      20.80      28.30        0.03     0.00   0.943
  4451                      30.00       0.00       0.00       1.77       7.50      20.80      28.30        0.03     0.00   0.943
  4452                      30.00       0.00       0.00       1.77       7.50      20.80      28.30        0.03     0.00   0.943
  4453                      30.00       0.00       0.00       1.77       7.50      20.80      28.30        0.03     0.00   0.943
  4454                      30.00       0.00       0.00       1.77       7.50      20.80      28.30        0.03     0.00   0.943
  4462                      30.00       0.00       0.00       1.77       7.50      20.80      28.30        0.03     0.00   0.943
  4463                      30.00       0.00       0.00       1.77       7.50      20.80      28.30        0.03     0.00   0.943
  4563                      30.00       0.00       0.00       1.77       7.50      20.80      28.30        0.03     0.00   0.943
  4564                      30.00       0.00       0.00       1.77       7.50      20.80      28.30        0.03     0.00   0.943
  4565                      30.00       0.00       0.00       1.77       7.50      20.80      28.30        0.03     0.00   0.943
  4566                      30.00       0.00       0.00       1.77       7.50      20.80      28.30        0.03     0.00   0.943
  4567                      30.00       0.00       0.00       1.77       7.50      20.80      28.30        0.03     0.00   0.943
  4568                      30.00       0.00       0.00       1.77       7.50      20.80      28.30        0.03     0.00   0.943
  4569                      30.00       0.00       0.00       1.77       7.50      20.80      28.30        0.03     0.00   0.943
  4570                      30.00       0.00       0.00       1.77       7.50      20.80      28.30        0.03     0.00   0.943
  4571                      30.00       0.00       0.00       1.77       7.50      20.80      28.30        0.03     0.00   0.943
  4572                      30.00       0.00       0.00       1.77       7.50      20.80      28.30        0.03     0.00   0.943
  4573                      30.00       0.00       0.00       1.77       7.50      20.80      28.30        0.03     0.00   0.943
  4574                      30.00       0.00       0.00       1.77       7.50      20.80      28.30        0.03     0.00   0.943
  4575                      30.00       0.00       0.00       1.77       7.50      20.80      28.30        0.03     0.00   0.943
  4576                      30.00       0.00       0.00       1.77       7.50      20.80      28.30        0.03     0.00   0.943
  4577                      30.00       0.00       0.00       1.77       7.50      20.80      28.30        0.03     0.00   0.943
  4578                      30.00       0.00       0.00       1.77       7.50      20.80      28.30        0.03     0.00   0.943
  4579                      30.00       0.00       0.00       1.77       7.50      20.80      28.30        0.03     0.00   0.943
  4580                      30.00       0.00       0.00       1.77       7.50      20.80      28.30        0.03     0.00   0.943
  4581                      30.00       0.00       0.00       1.77       7.50      20.80      28.30        0.03     0.00   0.943
  4624                      30.00       0.00       0.00       1.77       7.50      20.80      28.30        0.03     0.00   0.943
  4625                      30.00       0.00       0.00       1.77       7.50      20.80      28.30        0.03     0.00   0.943
  4644                      30.00       0.00       0.00       1.77       7.50      20.80      28.30        0.03     0.00   0.943
  4645                      30.00       0.00       0.00       1.77       7.50      20.80      28.30        0.03     0.00   0.943
  4646                      30.00       0.00       0.00       1.77       7.50      20.80      28.30        0.03     0.00   0.943
  4679                      30.00       0.00       0.00       1.77       7.50      20.80      28.30        0.03     0.00   0.943
  4680                      30.00       0.00       0.00       1.77       7.50      20.80      28.30        0.03     0.00   0.943
  4681                      30.00       0.00       0.00       1.77       7.50      20.80      28.30        0.03     0.00   0.943
  4682                      30.00       0.00       0.00       1.77       7.50      20.80      28.30        0.03     0.00   0.943
  4683                      30.00       0.00       0.00       1.77       7.50      20.80      28.30        0.03     0.00   0.943
  4711                      30.00       0.00       0.00       1.77       7.50      20.80      28.30        0.03     0.00   0.943
  4712                      30.00       0.00       0.00       1.77       7.50      20.80      28.30        0.03     0.00   0.943
  4713                      30.00       0.00       0.00       1.77       7.50      20.80      28.30        0.03     0.00   0.943
  4714                      30.00       0.00       0.00       1.77       7.50      20.80      28.30        0.03     0.00   0.943
  4715                      30.00       0.00       0.00       1.77       7.50      20.80      28.30        0.03     0.00   0.943
  4716                      30.00       0.00       0.00       1.77       7.50      20.80      28.30        0.03     0.00   0.943
  4717                      30.00       0.00       0.00       1.77       7.50      20.80      28.30        0.03     0.00   0.943
  4718                      30.00       0.00       0.00       1.77       7.50      20.80      28.30        0.03     0.00   0.943
  4722                      30.00       0.00       0.00       1.77       7.50      20.80      28.30        0.03     0.00   0.943
  4760                      30.00       0.00       0.00       1.77       7.50      20.80      28.30        0.03     0.00   0.943
  4761                      30.00       0.00       0.00       1.77       7.50      20.80      28.30        0.03     0.00   0.943
  4765                      30.00       0.00       0.00       1.77       7.50      20.80      28.30        0.03     0.00   0.943
  4766                      30.00       0.00       0.00       1.77       7.50      20.80      28.30        0.03     0.00   0.943
  4767                      30.00       0.00       0.00       1.77       7.50      20.80      28.30        0.03     0.00   0.943
  4768                      30.00       0.00       0.00       1.77       7.50      20.80      28.30        0.03     0.00   0.943
  4769                      30.00       0.00       0.00       1.77       7.50      20.80      28.30        0.03     0.00   0.943
  4855                      30.00       0.00       0.00       1.77       7.50      20.80      28.30        0.03     0.00   0.943
  4856                      30.00       0.00       0.00       1.77       7.50      20.80      28.30        0.03     0.00   0.943
  5284                      30.00       0.00       0.00       1.77       7.50      20.80      28.30        0.03     0.00   0.943
  5285                      30.00       0.00       0.00       1.77       7.50      20.80      28.30        0.03     0.00   0.943
  5286                      30.00       0.00       0.00       1.77       7.50      20.80      28.30        0.03     0.00   0.943
  5287                      30.00       0.00       0.00       1.77       7.50      20.80      28.30        0.03     0.00   0.943
  5288                      30.00       0.00       0.00       1.77       7.50      20.80      28.30        0.03     0.00   0.943
  5289                      30.00       0.00       0.00       1.77       7.50      20.80      28.30        0.03     0.00   0.943
  5290                      30.00       0.00       0.00       1.77       7.50      20.80      28.30        0.03     0.00   0.943
  5291                      30.00       0.00       0.00       1.77       7.50      20.80      28.30        0.03     0.00   0.943
  5292                      30.00       0.00       0.00       1.77       7.50      20.80      28.30        0.03     0.00   0.943
  5293                      30.00       0.00       0.00       1.77       7.50      20.80      28.30        0.03     0.00   0.943
  5294                      30.00       0.00       0.00       1.77       7.50      20.80      28.30        0.03     0.00   0.943
  5295                      30.00       0.00       0.00       1.77       7.50      20.80      28.30        0.03     0.00   0.943
  5296                      30.00       0.00       0.00       1.77       7.50      20.80      28.30        0.03     0.00   0.943
  5297                      30.00       0.00       0.00       1.77       7.50      20.80      28.30        0.03     0.00   0.943
  5298                      30.00       0.00       0.00       1.77       7.50      20.80      28.30        0.03     0.00   0.943
  5299                      30.00       0.00       0.00       1.77       7.50      20.80      28.30        0.03     0.00   0.943
  5300                      30.00       0.00       0.00       1.77       7.50      20.80      28.30        0.03     0.00   0.943
  5301                      30.00       0.00       0.00       1.77       7.50      20.80      28.30        0.03     0.00   0.943
  5302                      30.00       0.00       0.00       1.77       7.50      20.80      28.30        0.03     0.00   0.943
  5303                      30.00       0.00       0.00       1.77       7.50      20.80      28.30        0.03     0.00   0.943
  5304                      30.00       0.00       0.00       1.77       7.50      20.80      28.30        0.03     0.00   0.943
  5305                      30.00       0.00       0.00       1.77       7.50      20.80      28.30        0.03     0.00   0.943
  5306                      30.00       0.00       0.00       1.77       7.50      20.80      28.30        0.03     0.00   0.943
  5307                      30.00       0.00       0.00       1.77       7.50      20.80      28.30        0.03     0.00   0.943
  5308                      30.00       0.00       0.00       1.77       7.50      20.80      28.30        0.03     0.00   0.943
  5309                      30.00       0.00       0.00       1.77       7.50      20.80      28.30        0.03     0.00   0.943
  5310                      30.00       0.00       0.00       1.77       7.50      20.80      28.30        0.03     0.00   0.943
  5311                      30.00       0.00       0.00       1.77       7.50      20.80      28.30        0.03     0.00   0.943
  5312                      30.00       0.00       0.00       1.77       7.50      20.80      28.30        0.03     0.00   0.943
  5313                      30.00       0.00       0.00       1.77       7.50      20.80      28.30        0.03     0.00   0.943
  5314                      30.00       0.00       0.00       1.77       7.50      20.80      28.30        0.03     0.00   0.943
  5315                      30.00       0.00       0.00       1.77       7.50      20.80      28.30        0.03     0.00   0.943
  5316                      30.00       0.00       0.00       1.77       7.50      20.80      28.30        0.03     0.00   0.943
  5317                      30.00       0.00       0.00       1.77       7.50      20.80      28.30        0.03     0.00   0.943
  5318                      30.00       0.00       0.00       1.77       7.50      20.80      28.30        0.03     0.00   0.943
  5319                      30.00       0.00       0.00       1.77       7.50      20.80      28.30        0.03     0.00   0.943
  5320                      30.00       0.00       0.00       1.77       7.50      20.80      28.30        0.03     0.00   0.943
  5321                      30.00       0.00       0.00       1.77       7.50      20.80      28.30        0.03     0.00   0.943
  5322                      30.00       0.00       0.00       1.77       7.50      20.80      28.30        0.03     0.00   0.943
  5323                      30.00       0.00       0.00       1.77       7.50      20.80      28.30        0.03     0.00   0.943
  5324                      30.00       0.00       0.00       1.77       7.50      20.80      28.30        0.03     0.00   0.943
  5325                      30.00       0.00       0.00       1.77       7.50      20.80      28.30        0.03     0.00   0.943
  5326                      30.00       0.00       0.00       1.77       7.50      20.80      28.30        0.03     0.00   0.943
  5327                      30.00       0.00       0.00       1.77       7.50      20.80      28.30        0.03     0.00   0.943
  5328                      30.00       0.00       0.00       1.77       7.50      20.80      28.30        0.03     0.00   0.943
  5329                      30.00       0.00       0.00       1.77       7.50      20.80      28.30        0.03     0.00   0.943
  5330                      30.00       0.00       0.00       1.77       7.50      20.80      28.30        0.03     0.00   0.943
  5333                      30.00       0.00       0.00       1.77       7.50      20.80      28.30        0.03     0.00   0.943
  5334                      30.00       0.00       0.00       1.77       7.50      20.80      28.30        0.03     0.00   0.943
  6040                      30.00       0.00       0.00       1.77       7.50      20.80      28.30        0.03     0.00   0.943
  6041                      30.00       0.00       0.00       1.77       7.50      20.80      28.30        0.03     0.00   0.943
  6162                      30.00       0.00       0.00       1.77       7.50      20.80      28.30        0.03     0.00   0.943
  7207                      30.00       0.00       0.00       1.77       7.50      20.80      28.30        0.03     0.00   0.943
  7208                      30.00       0.00       0.00       1.77       7.50      20.80      28.30        0.03     0.00   0.943
  7213                      30.00       0.00       0.00       1.77       7.50      20.80      28.30        0.03     0.00   0.943
  7214                      30.00       0.00       0.00       1.77       7.50      20.80      28.30        0.03     0.00   0.943
  7219                      30.00       0.00       0.00       1.77       7.50      20.80      28.30        0.03     0.00   0.943
  7220                      30.00       0.00       0.00       1.77       7.50      20.80      28.30        0.03     0.00   0.943
  7221                      30.00       0.00       0.00       1.77       7.50      20.80      28.30        0.03     0.00   0.943
  7225                      30.00       0.00       0.00       1.77       7.50      20.80      28.30        0.03     0.00   0.943
  7229                      30.00       0.00       0.00       1.77       7.50      20.80      28.30        0.03     0.00   0.943
  7231                      30.00       0.00       0.00       1.77       7.50      20.80      28.30        0.03     0.00   0.943
  7268                      30.00       0.00       0.00       1.77       7.50      20.80      28.30        0.03     0.00   0.943
  7269                      30.00       0.00       0.00       1.77       7.50      20.80      28.30        0.03     0.00   0.943
  7271                      30.00       0.00       0.00       1.77       7.50      20.80      28.30        0.03     0.00   0.943
  7272                      30.00       0.00       0.00       1.77       7.50      20.80      28.30        0.03     0.00   0.943
  7273                      30.00       0.00       0.00       1.77       7.50      20.80      28.30        0.03     0.00   0.943
  7433                      30.00       0.00       0.00       1.77       7.50      20.80      28.30        0.03     0.00   0.943
  7434                      30.00       0.00       0.00       1.77       7.50      20.80      28.30        0.03     0.00   0.943
  7544                      30.00       0.00       0.00       1.77       7.50      20.80      28.30        0.03     0.00   0.943
  7545                      30.00       0.00       0.00       1.77       7.50      20.80      28.30        0.03     0.00   0.943
  8737                      30.00       0.00       0.00       1.77       7.50      20.80      28.30        0.03     0.00   0.943
  8818                      30.00       0.00       0.00       1.77       7.50      20.80      28.30        0.03     0.00   0.943
  9942                      30.00       0.00       0.00       1.77       7.50      20.80      28.30        0.03     0.00   0.943
  9957                      30.00       0.00       0.00       1.77       7.50      20.80      28.30        0.03     0.00   0.943
  4399                      30.00       0.00       0.00       1.70       7.50      20.89      28.39        0.01     0.00   0.946
  4400                      30.00       0.00       0.00       1.70       7.50      20.89      28.39        0.01     0.00   0.946
  4401                      30.00       0.00       0.00       1.70       7.50      20.89      28.39        0.01     0.00   0.946
  4402                      30.00       0.00       0.00       1.70       7.50      20.89      28.39        0.01     0.00   0.946
  4403                      30.00       0.00       0.00       1.70       7.50      20.89      28.39        0.01     0.00   0.946
  4404                      30.00       0.00       0.00       1.70       7.50      20.89      28.39        0.01     0.00   0.946
  4405                      30.00       0.00       0.00       1.70       7.50      20.89      28.39        0.01     0.00   0.946
  4406                      30.00       0.00       0.00       1.70       7.50      20.89      28.39        0.01     0.00   0.946
  4407                      30.00       0.00       0.00       1.70       7.50      20.89      28.39        0.01     0.00   0.946
  4408                      30.00       0.00       0.00       1.70       7.50      20.89      28.39        0.01     0.00   0.946
  4409                      30.00       0.00       0.00       1.70       7.50      20.89      28.39        0.01     0.00   0.946
  4410                      30.00       0.00       0.00       1.70       7.50      20.89      28.39        0.01     0.00   0.946
  4411                      30.00       0.00       0.00       1.70       7.50      20.89      28.39        0.01     0.00   0.946
  4412                      30.00       0.00       0.00       1.70       7.50      20.89      28.39        0.01     0.00   0.946
  4423                      30.00       0.00       0.00       1.70       7.50      20.89      28.39        0.01     0.00   0.946
  4424                      30.00       0.00       0.00       1.70       7.50      20.89      28.39        0.01     0.00   0.946
  4425                      30.00       0.00       0.00       1.70       7.50      20.89      28.39        0.01     0.00   0.946
  4426                      30.00       0.00       0.00       1.70       7.50      20.89      28.39        0.01     0.00   0.946
  4427                      30.00       0.00       0.00       1.70       7.50      20.89      28.39        0.01     0.00   0.946
  4428                      30.00       0.00       0.00       1.70       7.50      20.89      28.39        0.01     0.00   0.946
  4455                      30.00       0.00       0.00       1.70       7.50      20.89      28.39        0.01     0.00   0.946
  4456                      30.00       0.00       0.00       1.70       7.50      20.89      28.39        0.01     0.00   0.946
  4457                      30.00       0.00       0.00       1.70       7.50      20.89      28.39        0.01     0.00   0.946
  4458                      30.00       0.00       0.00       1.70       7.50      20.89      28.39        0.01     0.00   0.946
  4459                      30.00       0.00       0.00       1.70       7.50      20.89      28.39        0.01     0.00   0.946
  4460                      30.00       0.00       0.00       1.70       7.50      20.89      28.39        0.01     0.00   0.946
  4461                      30.00       0.00       0.00       1.70       7.50      20.89      28.39        0.01     0.00   0.946
  4464                      30.00       0.00       0.00       1.70       7.50      20.89      28.39        0.01     0.00   0.946
  4465                      30.00       0.00       0.00       1.70       7.50      20.89      28.39        0.01     0.00   0.946
  4466                      30.00       0.00       0.00       1.70       7.50      20.89      28.39        0.01     0.00   0.946
  4467                      30.00       0.00       0.00       1.70       7.50      20.89      28.39        0.01     0.00   0.946
  4468                      30.00       0.00       0.00       1.70       7.50      20.89      28.39        0.01     0.00   0.946
  4469                      30.00       0.00       0.00       1.70       7.50      20.89      28.39        0.01     0.00   0.946
  4470                      30.00       0.00       0.00       1.70       7.50      20.89      28.39        0.01     0.00   0.946
  4471                      30.00       0.00       0.00       1.70       7.50      20.89      28.39        0.01     0.00   0.946
  4472                      30.00       0.00       0.00       1.70       7.50      20.89      28.39        0.01     0.00   0.946
  4473                      30.00       0.00       0.00       1.70       7.50      20.89      28.39        0.01     0.00   0.946
  4474                      30.00       0.00       0.00       1.70       7.50      20.89      28.39        0.01     0.00   0.946
  4628                      30.00       0.00       0.00       1.70       7.50      20.89      28.39        0.01     0.00   0.946
  4631                      30.00       0.00       0.00       1.70       7.50      20.89      28.39        0.01     0.00   0.946
  4632                      30.00       0.00       0.00       1.70       7.50      20.89      28.39        0.01     0.00   0.946
  4633                      30.00       0.00       0.00       1.70       7.50      20.89      28.39        0.01     0.00   0.946
  4634                      30.00       0.00       0.00       1.70       7.50      20.89      28.39        0.01     0.00   0.946
  4637                      30.00       0.00       0.00       1.70       7.50      20.89      28.39        0.01     0.00   0.946
  4686                      30.00       0.00       0.00       1.70       7.50      20.89      28.39        0.01     0.00   0.946
  4687                      30.00       0.00       0.00       1.70       7.50      20.89      28.39        0.01     0.00   0.946
  4688                      30.00       0.00       0.00       1.70       7.50      20.89      28.39        0.01     0.00   0.946
  5032                      30.00       0.00       0.00       1.70       7.50      20.89      28.39        0.01     0.00   0.946
  5331                      30.00       0.00       0.00       1.70       7.50      20.89      28.39        0.01     0.00   0.946
  5332                      30.00       0.00       0.00       1.70       7.50      20.89      28.39        0.01     0.00   0.946
  5335                      30.00       0.00       0.00       1.70       7.50      20.89      28.39        0.01     0.00   0.946
  5336                      30.00       0.00       0.00       1.70       7.50      20.89      28.39        0.01     0.00   0.946
  5337                      30.00       0.00       0.00       1.70       7.50      20.89      28.39        0.01     0.00   0.946
  5338                      30.00       0.00       0.00       1.70       7.50      20.89      28.39        0.01     0.00   0.946
  5339                      30.00       0.00       0.00       1.70       7.50      20.89      28.39        0.01     0.00   0.946
  5340                      30.00       0.00       0.00       1.70       7.50      20.89      28.39        0.01     0.00   0.946
  5341                      30.00       0.00       0.00       1.70       7.50      20.89      28.39        0.01     0.00   0.946
  5342                      30.00       0.00       0.00       1.70       7.50      20.89      28.39        0.01     0.00   0.946
  5343                      30.00       0.00       0.00       1.70       7.50      20.89      28.39        0.01     0.00   0.946
  5344                      30.00       0.00       0.00       1.70       7.50      20.89      28.39        0.01     0.00   0.946
  5345                      30.00       0.00       0.00       1.70       7.50      20.89      28.39        0.01     0.00   0.946
  5346                      30.00       0.00       0.00       1.70       7.50      20.89      28.39        0.01     0.00   0.946
  5347                      30.00       0.00       0.00       1.70       7.50      20.89      28.39        0.01     0.00   0.946
  5348                      30.00       0.00       0.00       1.70       7.50      20.89      28.39        0.01     0.00   0.946
  5349                      30.00       0.00       0.00       1.70       7.50      20.89      28.39        0.01     0.00   0.946
  5350                      30.00       0.00       0.00       1.70       7.50      20.89      28.39        0.01     0.00   0.946
  6088                      30.00       0.00       0.00       1.70       7.50      20.89      28.39        0.01     0.00   0.946
  7275                      30.00       0.00       0.00       1.70       7.50      20.89      28.39        0.01     0.00   0.946
  9955                      30.00       0.00       0.00       1.70       7.50      20.89      28.39        0.01     0.00   0.946
  9956                      30.00       0.00       0.00       1.70       7.50      20.89      28.39        0.01     0.00   0.946
  
  
  ****************************
  Subcatchment Washoff Summary
  ****************************
  
  ----------------------------------
                                 COD
  Subcatchment                    kg
  ----------------------------------
  2707                         7.443
  2708                         7.443
  2709                         7.443
  2710                         7.443
  2712                         7.443
  2713                         7.443
  2714                         7.443
  2715                         7.443
  2716                         7.443
  2717                         7.443
  2718                         7.443
  2719                         7.443
  2721                         7.443
  2722                         7.443
  2723                         7.443
  2724                         7.443
  2725                         7.443
  2726                         7.443
  2727                         7.443
  2728                         7.443
  2729                         7.443
  2730                         7.443
  2731                         7.443
  2732                         7.443
  2733                         7.443
  2734                         7.443
  2735                         7.443
  2736                         7.443
  2737                         7.443
  2738                         7.443
  2739                         7.443
  2740                         7.443
  2741                         7.443
  2742                         7.443
  2743                         7.443
  2744                         7.443
  2745                         7.443
  2746                         7.443
  2747                         7.443
  2748                         7.443
  2749                         7.443
  2750                         7.443
  2751                         7.443
  2752                         7.443
  2753                         7.443
  2754                         7.443
  2755                         7.443
  2756                         7.443
  2964                         7.443
  2969                         7.443
  2970                         7.443
  2974                         7.443
  2975                         7.443
  2976                         7.443
  2977                         7.443
  2978                         7.443
  2979                         7.443
  2980                         7.443
  2981                         7.443
  2982                         7.443
  2984                         7.443
  2985                         7.443
  3925                         7.443
  3926                         7.443
  3927                         7.443
  3928                         7.443
  3929                         7.443
  3930                         7.443
  3931                         7.443
  3932                         7.443
  3933                         7.443
  3934                         7.443
  3935                         7.443
  3936                         7.443
  3937                         7.443
  3938                         7.443
  3939                         7.443
  3940                         7.443
  3941                         7.443
  3942                         7.443
  3943                         7.443
  3944                         7.443
  3945                         7.443
  3946                         7.443
  3947                         7.443
  3948                         7.443
  3949                         7.443
  3950                         7.443
  3951                         7.443
  3952                         7.443
  3953                         7.443
  3954                         7.443
  3955                         7.443
  3956                         7.443
  4032                         7.443
  4033                         7.443
  4041                         7.443
  4051                         7.443
  4055                         7.443
  4056                         7.443
  4058                         7.443
  4385                         7.443
  4386                         7.443
  4387                         7.443
  4388                         7.443
  4389                         7.443
  4390                         7.443
  4391                         7.443
  4392                         7.443
  4393                         7.443
  4394                         7.443
  4395                         7.443
  4396                         7.443
  4397                         7.443
  4398                         7.443
  4429                         7.443
  4430                         7.443
  4431                         7.443
  4432                         7.443
  4433                         7.443
  4434                         7.443
  4435                         7.443
  4436                         7.443
  4437                         7.443
  4438                         7.443
  4439                         7.443
  4440                         7.443
  4441                         7.443
  4442                         7.443
  4443                         7.443
  4444                         7.443
  4445                         7.443
  4446                         7.443
  4447                         7.443
  4448                         7.443
  4449                         7.443
  4450                         7.443
  4451                         7.443
  4452                         7.443
  4453                         7.443
  4454                         7.443
  4462                         7.443
  4463                         7.443
  4563                         7.443
  4564                         7.443
  4565                         7.443
  4566                         7.443
  4567                         7.443
  4568                         7.443
  4569                         7.443
  4570                         7.443
  4571                         7.443
  4572                         7.443
  4573                         7.443
  4574                         7.443
  4575                         7.443
  4576                         7.443
  4577                         7.443
  4578                         7.443
  4579                         7.443
  4580                         7.443
  4581                         7.443
  4624                         7.443
  4625                         7.443
  4644                         7.443
  4645                         7.443
  4646                         7.443
  4679                         7.443
  4680                         7.443
  4681                         7.443
  4682                         7.443
  4683                         7.443
  4711                         7.443
  4712                         7.443
  4713                         7.443
  4714                         7.443
  4715                         7.443
  4716                         7.443
  4717                         7.443
  4718                         7.443
  4722                         7.443
  4760                         7.443
  4761                         7.443
  4765                         7.443
  4766                         7.443
  4767                         7.443
  4768                         7.443
  4769                         7.443
  4855                         7.443
  4856                         7.443
  5284                         7.443
  5285                         7.443
  5286                         7.443
  5287                         7.443
  5288                         7.443
  5289                         7.443
  5290                         7.443
  5291                         7.443
  5292                         7.443
  5293                         7.443
  5294                         7.443
  5295                         7.443
  5296                         7.443
  5297                         7.443
  5298                         7.443
  5299                         7.443
  5300                         7.443
  5301                         7.443
  5302                         7.443
  5303                         7.443
  5304                         7.443
  5305                         7.443
  5306                         7.443
  5307                         7.443
  5308                         7.443
  5309                         7.443
  5310                         7.443
  5311                         7.443
  5312                         7.443
  5313                         7.443
  5314                         7.443
  5315                         7.443
  5316                         7.443
  5317                         7.443
  5318                         7.443
  5319                         7.443
  5320                         7.443
  5321                         7.443
  5322                         7.443
  5323                         7.443
  5324                         7.443
  5325                         7.443
  5326                         7.443
  5327                         7.443
  5328                         7.443
  5329                         7.443
  5330                         7.443
  5333                         7.443
  5334                         7.443
  6040                         7.443
  6041                         7.443
  6162                         7.443
  7207                         7.443
  7208                         7.443
  7213                         7.443
  7214                         7.443
  7219                         7.443
  7220                         7.443
  7221                         7.443
  7225                         7.443
  7229                         7.443
  7231                         7.443
  7268                         7.443
  7269                         7.443
  7271                         7.443
  7272                         7.443
  7273                         7.443
  7433                         7.443
  7434                         7.443
  7544                         7.443
  7545                         7.443
  8737                         7.443
  8818                         7.443
  9942                         7.443
  9957                         7.443
  4399                         2.240
  4400                         2.240
  4401                         2.240
  4402                         2.240
  4403                         2.240
  4404                         2.240
  4405                         2.240
  4406                         2.240
  4407                         2.240
  4408                         2.240
  4409                         2.240
  4410                         2.240
  4411                         2.240
  4412                         2.240
  4423                         2.240
  4424                         2.240
  4425                         2.240
  4426                         2.240
  4427                         2.240
  4428                         2.240
  4455                         2.240
  4456                         2.240
  4457                         2.240
  4458                         2.240
  4459                         2.240
  4460                         2.240
  4461                         2.240
  4464                         2.240
  4465                         2.240
  4466                         2.240
  4467                         2.240
  4468                         2.240
  4469                         2.240
  4470                         2.240
  4471                         2.240
  4472                         2.240
  4473                         2.240
  4474                         2.240
  4628                         2.240
  4631                         2.240
  4632                         2.240
  4633                         2.240
  4634                         2.240
  4637                         2.240
  4686                         2.240
  4687                         2.240
  4688                         2.240
  5032                         2.240
  5331                         2.240
  5332                         2.240
  5335                         2.240
  5336                         2.240
  5337                         2.240
  5338                         2.240
  5339                         2.240
  5340                         2.240
  5341                         2.240
  5342                         2.240
  5343                         2.240
  5344                         2.240
  5345                         2.240
  5346                         2.240
  5347                         2.240
  5348                         2.240
  5349                         2.240
  5350                         2.240
  6088                         2.240
  7275                         2.240
  9955                         2.240
  9956                         2.240
  ----------------------------------
  System                    2129.283
  
  
  ******************
  Node Depth Summary
  ******************
  
  ---------------------------------------------------------------------------------
                                 Average  Maximum  Maximum  Time of Max    Reported
                                   Depth    Depth      HGL   Occurrence   Max Depth
  Node                 Type       Meters   Meters   Meters  days hr:min      Meters
  ---------------------------------------------------------------------------------
<<<<<<< HEAD
  Node_02706           JUNCTION     1.63     1.80    98.64     0  04:09        0.00
=======
<<<<<<< HEAD
  Node_02706           JUNCTION     1.62     1.81    98.65     0  03:50        0.00
=======
  Node_02706           JUNCTION     1.64     2.03    98.87     0  04:16        0.00
>>>>>>> b040755ab93617f94f1ab7a7036927f36e763e5a
>>>>>>> ebd46bdc835ac17077bb70c3b6f6db3a4ee81ecd
  Node_02707           JUNCTION     0.22     0.24    99.67     0  03:00        0.00
  Node_02708           JUNCTION     0.36     0.38   100.14     0  02:00        0.00
  Node_02709           JUNCTION     0.42     0.43   100.07     0  02:00        0.00
  Node_02711           JUNCTION     0.06     0.11   100.02     0  03:00        0.00
  Node_02712           JUNCTION     0.07     0.11   100.01     0  03:00        0.00
  Node_02713           JUNCTION     0.10     0.15   100.00     0  03:00        0.00
  Node_02714           JUNCTION     0.02     0.03   100.43     0  03:00        0.00
  Node_02715           JUNCTION     0.07     0.12    99.93     0  03:00        0.00
  Node_02716           JUNCTION     0.08     0.13    99.85     0  03:00        0.00
  Node_02717           JUNCTION     0.11     0.17    99.81     0  03:00        0.00
  Node_02718           JUNCTION     0.09     0.15    99.75     0  03:00        0.00
  Node_02720           JUNCTION     0.10     0.16    99.72     0  03:00        0.00
  Node_02721           JUNCTION     0.37     0.44    99.68     0  03:00        0.00
  Node_02722           JUNCTION     0.13     0.15   101.95     0  03:00        0.00
  Node_02723           JUNCTION     0.29     0.36    99.66     0  03:00        0.00
  Node_02724           JUNCTION     0.12     0.19    99.61     0  03:00        0.00
  Node_02725           JUNCTION     0.12     0.19    99.56     0  03:00        0.00
  Node_02726           JUNCTION     0.15     0.22    99.49     0  03:01        0.00
<<<<<<< HEAD
  Node_02727           JUNCTION     0.22     0.32    99.44     0  03:00        0.00
  Node_02728           JUNCTION     0.05     0.06   100.14     0  03:00        0.00
  Node_02729           JUNCTION     0.25     0.36    99.42     0  03:00        0.00
  Node_02730           JUNCTION     0.25     0.37    99.40     0  03:00        0.00
  Node_02731           JUNCTION     0.66     0.79    99.38     0  03:00        0.00
  Node_02732           JUNCTION     0.22     0.35    99.37     0  02:58        0.00
  Node_02733           JUNCTION     0.21     0.35    99.36     0  02:58        0.00
  Node_02734           JUNCTION     0.49     0.63    99.34     0  03:00        0.00
  Node_02735           JUNCTION     0.39     0.53    99.34     0  02:59        0.00
  Node_02736           JUNCTION     0.57     0.72    99.33     0  03:00        0.00
  Node_02737           JUNCTION     0.55     0.69    99.31     0  02:59        0.00
  Node_02738           JUNCTION     0.37     0.52    99.29     0  02:59        0.00
  Node_02739           JUNCTION     0.24     0.39    99.26     0  03:00        0.00
  Node_02740           JUNCTION     0.24     0.40    99.24     0  03:00        0.00
=======
<<<<<<< HEAD
  Node_02727           JUNCTION     0.22     0.32    99.44     0  02:58        0.00
  Node_02728           JUNCTION     0.05     0.06   100.14     0  03:00        0.00
  Node_02729           JUNCTION     0.25     0.36    99.42     0  03:01        0.00
  Node_02730           JUNCTION     0.25     0.37    99.40     0  03:00        0.00
  Node_02731           JUNCTION     0.66     0.79    99.38     0  02:59        0.00
  Node_02732           JUNCTION     0.22     0.35    99.37     0  02:55        0.00
  Node_02733           JUNCTION     0.21     0.35    99.36     0  02:59        0.00
  Node_02734           JUNCTION     0.49     0.63    99.34     0  02:59        0.00
  Node_02735           JUNCTION     0.39     0.53    99.34     0  03:00        0.00
  Node_02736           JUNCTION     0.57     0.72    99.33     0  03:00        0.00
  Node_02737           JUNCTION     0.55     0.69    99.31     0  02:56        0.00
  Node_02738           JUNCTION     0.37     0.52    99.29     0  02:57        0.00
  Node_02739           JUNCTION     0.24     0.39    99.26     0  02:57        0.00
  Node_02740           JUNCTION     0.24     0.40    99.24     0  02:59        0.00
  Node_02741           JUNCTION     0.05     0.07    99.37     0  02:00        0.00
  Node_02742           JUNCTION     0.25     0.41    99.21     0  02:59        0.00
  Node_02743           JUNCTION     0.66     0.81    99.18     0  03:00        0.00
  Node_02744           JUNCTION     0.06     0.08    99.42     0  00:00        0.00
  Node_02745           JUNCTION     0.39     0.54    99.16     0  03:00        0.00
  Node_02746           JUNCTION     0.28     0.43    99.12     0  02:59        0.00
  Node_02747           JUNCTION     0.05     0.07   100.42     0  02:00        0.00
  Node_02748           JUNCTION     0.03     0.04   100.49     0  02:00        0.00
  Node_02749           JUNCTION     0.29     0.43    99.07     0  03:00        0.00
  Node_02750           JUNCTION     0.28     0.42    99.02     0  03:00        0.00
  Node_02751           JUNCTION     0.25     0.37    98.97     0  03:00        0.00
  Node_02752           JUNCTION     0.23     0.35    98.90     0  03:01        0.00
  Node_02753           JUNCTION     0.24     0.34    98.82     0  03:01        0.00
  Node_02754           JUNCTION     0.14     0.33    98.65     0  03:51        0.00
  Node_02755           JUNCTION     1.07     1.27    98.66     0  03:47        0.00
  Node_02963           JUNCTION     0.06     0.08    99.99     0  02:00        0.00
  Node_02968           JUNCTION     0.07     0.08   100.20     0  02:00        0.00
  Node_02969           JUNCTION     0.07     0.10    99.98     0  00:00        0.00
  Node_02973           JUNCTION     0.61     0.76    98.65     0  03:49        0.00
  Node_02974           JUNCTION     0.56     0.92    98.05     0  03:46        0.00
  Node_02975           JUNCTION     0.57     0.94    98.08     0  03:48        0.00
  Node_02976           JUNCTION     0.64     1.14    98.33     0  03:47        0.00
  Node_02977           JUNCTION     0.71     1.45    98.79     0  03:47        0.00
  Node_02978           JUNCTION     0.67     1.42    98.95     0  03:47        0.00
  Node_02979           JUNCTION     0.47     0.75    97.87     0  03:46        0.00
  Node_02980           JUNCTION     0.37     0.59    97.68     0  04:17        0.00
  Node_02981           JUNCTION     0.31     0.56    97.51     0  04:17        0.00
  Node_02983           JUNCTION     0.04     0.05   100.17     0  02:00        0.00
  Node_02984           JUNCTION     1.03     1.75    98.73     0  03:47        0.00
=======
  Node_02727           JUNCTION     0.22     0.32    99.44     0  03:00        0.00
  Node_02728           JUNCTION     0.05     0.06   100.14     0  03:00        0.00
  Node_02729           JUNCTION     0.25     0.36    99.42     0  03:00        0.00
  Node_02730           JUNCTION     0.25     0.37    99.40     0  03:01        0.00
  Node_02731           JUNCTION     0.66     0.79    99.38     0  03:01        0.00
  Node_02732           JUNCTION     0.22     0.35    99.37     0  03:00        0.00
  Node_02733           JUNCTION     0.21     0.35    99.36     0  03:00        0.00
  Node_02734           JUNCTION     0.49     0.63    99.34     0  03:00        0.00
  Node_02735           JUNCTION     0.39     0.53    99.34     0  03:00        0.00
  Node_02736           JUNCTION     0.57     0.72    99.33     0  03:00        0.00
  Node_02737           JUNCTION     0.55     0.69    99.31     0  03:00        0.00
  Node_02738           JUNCTION     0.37     0.52    99.29     0  03:00        0.00
  Node_02739           JUNCTION     0.24     0.39    99.26     0  03:00        0.00
  Node_02740           JUNCTION     0.25     0.40    99.24     0  03:00        0.00
>>>>>>> ebd46bdc835ac17077bb70c3b6f6db3a4ee81ecd
  Node_02741           JUNCTION     0.05     0.07    99.37     0  02:00        0.00
  Node_02742           JUNCTION     0.25     0.41    99.21     0  03:00        0.00
  Node_02743           JUNCTION     0.66     0.81    99.18     0  03:00        0.00
  Node_02744           JUNCTION     0.06     0.08    99.42     0  00:00        0.00
  Node_02745           JUNCTION     0.39     0.54    99.16     0  03:00        0.00
  Node_02746           JUNCTION     0.28     0.43    99.12     0  03:00        0.00
  Node_02747           JUNCTION     0.05     0.07   100.42     0  02:00        0.00
  Node_02748           JUNCTION     0.03     0.04   100.49     0  02:00        0.00
  Node_02749           JUNCTION     0.29     0.43    99.07     0  03:00        0.00
<<<<<<< HEAD
  Node_02750           JUNCTION     0.28     0.42    99.02     0  03:00        0.00
  Node_02751           JUNCTION     0.25     0.37    98.97     0  03:00        0.00
  Node_02752           JUNCTION     0.23     0.35    98.90     0  03:01        0.00
  Node_02753           JUNCTION     0.24     0.34    98.82     0  03:01        0.00
  Node_02754           JUNCTION     0.14     0.33    98.65     0  04:10        0.00
  Node_02755           JUNCTION     1.07     1.27    98.66     0  04:07        0.00
  Node_02963           JUNCTION     0.06     0.08    99.99     0  02:00        0.00
  Node_02968           JUNCTION     0.07     0.08   100.20     0  02:00        0.00
  Node_02969           JUNCTION     0.07     0.10    99.98     0  00:00        0.00
  Node_02973           JUNCTION     0.61     0.75    98.64     0  04:09        0.00
  Node_02974           JUNCTION     0.55     0.92    98.05     0  04:08        0.00
  Node_02975           JUNCTION     0.56     0.94    98.08     0  04:07        0.00
  Node_02976           JUNCTION     0.64     1.14    98.33     0  04:10        0.00
  Node_02977           JUNCTION     0.71     1.46    98.79     0  04:07        0.00
  Node_02978           JUNCTION     0.67     1.42    98.95     0  04:07        0.00
  Node_02979           JUNCTION     0.47     0.75    97.87     0  04:07        0.00
  Node_02980           JUNCTION     0.37     0.57    97.66     0  04:11        0.00
  Node_02981           JUNCTION     0.31     0.49    97.44     0  04:18        0.00
  Node_02983           JUNCTION     0.04     0.05   100.17     0  02:00        0.00
  Node_02984           JUNCTION     1.03     1.75    98.73     0  04:07        0.00
=======
  Node_02750           JUNCTION     0.29     0.42    99.03     0  04:16        0.00
  Node_02751           JUNCTION     0.25     0.39    98.98     0  04:16        0.00
  Node_02752           JUNCTION     0.24     0.39    98.94     0  04:16        0.00
  Node_02753           JUNCTION     0.24     0.42    98.90     0  04:16        0.00
  Node_02754           JUNCTION     0.16     0.55    98.87     0  04:16        0.00
  Node_02755           JUNCTION     1.09     1.47    98.87     0  04:16        0.00
  Node_02963           JUNCTION     0.06     0.08    99.99     0  02:00        0.00
  Node_02968           JUNCTION     0.07     0.08   100.20     0  02:00        0.00
  Node_02969           JUNCTION     0.07     0.10    99.98     0  00:00        0.00
  Node_02973           JUNCTION     0.63     0.98    98.87     0  04:15        0.00
  Node_02974           JUNCTION     0.59     1.21    98.33     0  04:16        0.00
  Node_02975           JUNCTION     0.59     1.22    98.36     0  04:16        0.00
  Node_02976           JUNCTION     0.67     1.38    98.57     0  04:16        0.00
  Node_02977           JUNCTION     0.74     1.58    98.91     0  04:15        0.00
  Node_02978           JUNCTION     0.69     1.54    99.07     0  04:16        0.00
  Node_02979           JUNCTION     0.50     1.07    98.19     0  04:16        0.00
  Node_02980           JUNCTION     0.40     0.93    98.02     0  04:15        0.00
  Node_02981           JUNCTION     0.34     0.89    97.84     0  04:16        0.00
  Node_02983           JUNCTION     0.04     0.05   100.17     0  02:00        0.00
  Node_02984           JUNCTION     1.06     1.88    98.86     0  04:15        0.00
>>>>>>> b040755ab93617f94f1ab7a7036927f36e763e5a
>>>>>>> ebd46bdc835ac17077bb70c3b6f6db3a4ee81ecd
  Node_03924           JUNCTION     0.02     0.03   100.85     0  02:00        0.00
  Node_03925           JUNCTION     0.25     0.28   100.65     0  03:00        0.00
  Node_03926           JUNCTION     0.01     0.02   101.49     0  03:00        0.00
  Node_03927           JUNCTION     0.22     0.26   100.64     0  03:00        0.00
  Node_03928           JUNCTION     0.24     0.28   100.63     0  03:00        0.00
  Node_03929           JUNCTION     0.24     0.29   100.59     0  03:00        0.00
  Node_03930           JUNCTION     0.25     0.31   100.56     0  03:00        0.00
  Node_03931           JUNCTION     0.24     0.29   100.54     0  03:00        0.00
  Node_03932           JUNCTION     0.26     0.33   100.49     0  03:00        0.00
  Node_03933           JUNCTION     0.25     0.30   100.42     0  03:00        0.00
  Node_03934           JUNCTION     0.06     0.07   100.93     0  03:00        0.00
  Node_03935           JUNCTION     0.31     0.41   100.38     0  03:00        0.00
  Node_03936           JUNCTION     0.33     0.44   100.37     0  03:00        0.00
  Node_03937           JUNCTION     1.21     1.22   101.38     0  03:00        0.00
<<<<<<< HEAD
  Node_03938           JUNCTION     1.43     3.04   102.24     0  01:54        0.00
  Node_03939           JUNCTION     1.53     3.19   102.23     0  01:54        0.00
  Node_03940           JUNCTION     1.60     3.30   102.23     0  01:54        0.00
  Node_03941           JUNCTION     1.69     3.41   102.22     0  01:54        0.00
  Node_03942           JUNCTION     1.72     3.46   102.21     0  03:17        0.00
  Node_03943           JUNCTION     1.81     3.58   102.19     0  01:54        0.00
  Node_03944           JUNCTION     1.91     3.69   102.17     0  01:54        0.00
  Node_03945           JUNCTION     1.96     3.75   102.17     0  03:45        0.00
  Node_03946           JUNCTION     2.01     3.80   102.16     0  03:45        0.00
  Node_03947           JUNCTION     2.18     3.92   101.81     0  03:31        0.00
  Node_03948           JUNCTION     2.07     3.74   101.59     0  03:53        0.00
  Node_03949           JUNCTION     2.13     3.74   101.44     0  02:05        0.00
  Node_03950           JUNCTION     1.94     3.49   101.26     0  02:03        0.00
  Node_03951           JUNCTION     1.85     3.30   100.99     0  02:03        0.00
  Node_03952           JUNCTION     1.76     3.10   100.69     0  02:01        0.00
  Node_03953           JUNCTION     1.57     2.76   100.34     0  03:00        0.00
  Node_03954           JUNCTION     2.34     3.38    99.96     0  03:29        0.00
  Node_03955           JUNCTION     1.19     2.07    99.56     0  03:29        0.00
[...]
  Link_01790                  16.306
  Link_01791                  14.616
  Link_01792                  12.791
  Link_01793                 598.190
  Link_01794                 606.866
  Link_01795                 615.369
  Link_01796                 623.816
  Link_01797                 632.194
  Link_01798                1315.245
  Link_01799                1305.173
  Link_01800                1324.295
  Link_01801                 665.736
  Link_01802                1259.127
  Link_01803                1295.368
  Link_01804                1145.421
  Link_01805                1136.470
  Link_01806                1127.416
  Link_01807                1118.022
  Link_01808                  14.537
  Link_01809                1095.519
  Link_01810                1078.585
  Link_01811                   7.425
  Link_01812                  52.212
  Link_01813                  43.175
  Link_01814                1043.606
  Link_01815                1034.070
  Link_01816                1015.571
  Link_01817                   9.186
  Link_01818                 981.372
  Link_01819                 959.911
  Link_01820                  12.748
  Link_01821                  25.370
=======
  Link_01764                 178.130
  Link_01765                 193.768
  Link_01766                 201.501
  Link_01767                 288.543
  Link_01768                 296.321
  Link_01769                 303.847
  Link_01770                 311.634
  Link_01771                 319.448
  Link_01772                  23.213
  Link_01773                 350.736
  Link_01774                  30.635
  Link_01775                  79.397
  Link_01776                  71.968
  Link_01777                  64.461
  Link_01778                  57.017
  Link_01779                  49.533
  Link_01780                  42.056
  Link_01781                  34.303
  Link_01782                 410.536
  Link_01783                  11.010
  Link_01784                 429.761
  Link_01785                 438.333
  Link_01786                  61.264
  Link_01787                  32.404
  Link_01788                 540.449
  Link_01789                 549.175
  Link_01790                  16.306
  Link_01791                  14.616
  Link_01792                  12.791
  Link_01793                 598.159
  Link_01794                 606.835
  Link_01795                 615.338
  Link_01796                 623.785
  Link_01797                 632.129
  Link_01798                1315.404
  Link_01799                1304.846
  Link_01800                1324.554
  Link_01801                 665.710
  Link_01802                1258.261
  Link_01803                1294.880
  Link_01804                1144.128
  Link_01805                1134.923
  Link_01806                1125.541
  Link_01807                1115.958
  Link_01808                  14.537
  Link_01809                1092.988
  Link_01810                1075.711
  Link_01811                   7.426
  Link_01812                  52.212
  Link_01813                  43.175
  Link_01814                1040.007
  Link_01815                1029.881
  Link_01816                1010.975
  Link_01817                   9.179
  Link_01818                 976.355
  Link_01819                 954.439
  Link_01820                  12.733
  Link_01821                  25.304
>>>>>>> b040755ab93617f94f1ab7a7036927f36e763e5a
  Link_01822                   5.783
  Link_01823                 184.423
  Link_01824                 181.795
  Link_01825                  51.259
  Link_01826                  53.640
>>>>>>> ebd46bdc835ac17077bb70c3b6f6db3a4ee81ecd
  Link_01827                   2.238
  Link_01828                  58.305
  Link_01829                   5.772
  Link_01830                  66.571
  Link_01831                   2.238
  Link_01832                  71.254
  Link_01833                  73.649
<<<<<<< HEAD
  Link_01834                  78.442
=======
  Link_01834                  78.443
>>>>>>> ebd46bdc835ac17077bb70c3b6f6db3a4ee81ecd
  Link_01835                   2.237
  Link_01836                  40.364
  Link_01837                  20.107
  Link_01838                  28.259
  Link_01839                  37.885
  Link_01840                  35.584
  Link_01841                  33.308
  Link_01842                  27.016
  Link_01843                  22.386
  Link_01844                  20.099
<<<<<<< HEAD
  Link_02074                  10.975
  Link_02075                 181.835
  Link_02076                 202.480
  Link_02077                  17.810
  Link_02078                 228.221
  Link_02079                  12.705
  Link_02080                 248.661
  Link_02081                 256.346
  Link_02082                 264.085
  Link_02083                  12.760
  Link_02084                  10.998
  Link_02085                 656.454
  Link_02086                 639.799
  Link_02087                 631.501
  Link_02088                 622.294
  Link_02089                 613.739
  Link_02090                 583.749
  Link_02091                 576.054
  Link_02092                 567.905
  Link_02093                  10.912
  Link_02094                 539.865
  Link_02095                 531.537
  Link_02096                 485.400
  Link_02097                  17.971
  Link_02098                  19.802
  Link_02099                 477.162
  Link_02100                 468.893
  Link_02101                  16.248
  Link_02102                 435.934
  Link_02103                 411.578
  Link_02104                  22.117
  Link_02105                 337.551
  Link_02106                  15.045
  Link_02107                   7.412
  Link_02108                 320.302
  Link_02109                 313.387
  Link_02110                 268.084
  Link_02111                 176.877
  Link_02112                  16.231
=======
<<<<<<< HEAD
  Link_02074                  10.977
  Link_02075                 182.932
  Link_02076                 203.572
  Link_02077                  17.811
  Link_02078                 229.308
  Link_02079                  12.708
  Link_02080                 249.860
  Link_02081                 257.642
  Link_02082                 265.400
  Link_02083                  12.760
  Link_02084                  10.999
  Link_02085                 668.848
  Link_02086                 651.908
  Link_02087                 643.592
  Link_02088                 634.183
  Link_02089                 625.174
  Link_02090                 595.235
  Link_02091                 586.778
  Link_02092                 578.445
  Link_02093                  10.976
  Link_02094                 549.716
  Link_02095                 541.140
  Link_02096                 494.678
  Link_02097                  18.022
  Link_02098                  19.878
  Link_02099                 486.204
  Link_02100                 477.734
  Link_02101                  16.406
  Link_02102                 444.290
  Link_02103                 419.419
  Link_02104                  23.685
  Link_02105                 344.521
  Link_02106                  15.184
  Link_02107                   7.413
  Link_02108                 327.672
  Link_02109                 319.818
  Link_02110                 268.086
  Link_02111                 176.876
  Link_02112                  16.330
=======
  Link_02074                  10.970
  Link_02075                 182.625
  Link_02076                 203.288
  Link_02077                  17.807
  Link_02078                 229.019
  Link_02079                  12.698
  Link_02080                 249.540
  Link_02081                 257.332
  Link_02082                 265.080
  Link_02083                  12.760
  Link_02084                  10.999
  Link_02085                 662.792
  Link_02086                 645.837
  Link_02087                 637.340
  Link_02088                 627.924
  Link_02089                 618.965
  Link_02090                 589.033
  Link_02091                 580.830
  Link_02092                 572.397
  Link_02093                  10.953
  Link_02094                 543.898
  Link_02095                 535.364
  Link_02096                 488.881
  Link_02097                  18.027
  Link_02098                  19.911
  Link_02099                 480.492
  Link_02100                 471.999
  Link_02101                  16.498
  Link_02102                 438.646
  Link_02103                 413.774
  Link_02104                  23.228
  Link_02105                 338.394
  Link_02106                  14.700
  Link_02107                   7.412
  Link_02108                 320.741
  Link_02109                 313.338
  Link_02110                 268.087
  Link_02111                 176.877
  Link_02112                  16.257
>>>>>>> b040755ab93617f94f1ab7a7036927f36e763e5a
>>>>>>> ebd46bdc835ac17077bb70c3b6f6db3a4ee81ecd
  Link_02113                 130.180
  Link_02114                  36.305
  Link_02115                  33.923
  Link_02116                  31.617
  Link_02117                  29.356
  Link_02118                  27.071
  Link_02123                   5.783
  Link_02124                   8.051
  Link_02125                  10.325
  Link_02126                  12.571
  Link_02127                  24.806
  Link_02128                  22.521
  Link_02129                  20.266
  Link_02130                  18.010
  Link_02131                  15.715
  Link_02132                  13.415
  Link_02133                  11.116
<<<<<<< HEAD
  Link_02134                 132.593
  Link_02135                 134.972
  Link_02136                 143.159
  Link_02137                   5.784
  Link_02138                 163.282
  Link_02139                 160.882
  Link_02140                 158.417
  Link_02141                 156.061
  Link_02142                 153.622
  Link_02143                 145.510
  Link_02383                   7.387
  Link_02384                  14.701
  Link_02385                  22.138
  Link_02386                  25.239
  Link_02387                  54.889
  Link_02388                  62.310
  Link_02389                  25.167
  Link_02390                  69.895
  Link_02391                 102.361
  Link_02392                  33.232
  Link_02393                 142.890
  Link_05459                  53.874
  Link_05460                 138.283
  Link_05461                 185.824
  Link_05462                 389.601
  Link_05463                 589.201
  Link_05464                  51.675
  Link_05496                1990.722
  Link_05662                  44.389
  Link_05663                   9.203
  Link_05664                  74.338
  Link_05665                 496.031
  Link_05677                 371.219
  Link_05678                  18.252
  Link_05720                1239.068
  Link_05721                1055.998
  Link_05722                  16.310
  Link_05723                  91.445
  Link_05725                  14.870
  Link_05726                 664.266
  Link_05727                   9.115
  Link_05728                 548.815
  Link_05729                 444.110
  Link_05730                 265.593
  Link_05731                 179.186
  Link_05732                 174.547
  Link_05742                  25.410
  Link_05743                 150.376
  Link_05744                 272.320
  Link_05752                  21.803
  Link_05753                   4.018
  Link_05754                  24.692
  Link_05791                   5.780
  Link_05812                 224.647
  Link_05813                 126.291
  Link_05814                 149.274
  Link_05815                 174.598
=======
  Link_02134                 132.594
  Link_02135                 134.972
  Link_02136                 143.160
  Link_02137                   5.784
  Link_02138                 163.282
  Link_02139                 160.881
  Link_02140                 158.416
  Link_02141                 156.061
<<<<<<< HEAD
  Link_02142                 153.622
  Link_02143                 145.510
  Link_02383                   7.416
  Link_02384                  14.881
  Link_02385                  22.603
  Link_02386                  25.293
  Link_02387                  55.169
  Link_02388                  62.693
  Link_02389                  25.211
  Link_02390                  70.356
  Link_02391                 103.065
  Link_02392                  33.303
  Link_02393                 143.807
  Link_05459                  53.874
  Link_05460                 138.283
  Link_05461                 185.824
  Link_05462                 389.643
  Link_05463                 589.243
  Link_05464                  41.373
  Link_05496                2000.855
  Link_05662                  44.389
  Link_05663                   9.203
  Link_05664                  74.222
  Link_05665                 495.084
  Link_05677                 370.323
  Link_05678                  18.264
  Link_05720                1250.328
  Link_05721                1068.787
  Link_05722                  16.311
  Link_05723                  91.444
  Link_05725                  14.870
  Link_05726                 676.909
  Link_05727                   9.238
  Link_05728                 559.073
  Link_05729                 452.694
  Link_05730                 265.592
  Link_05731                 179.185
  Link_05732                 174.546
  Link_05742                  25.433
  Link_05743                 151.475
  Link_05744                 273.618
  Link_05752                  21.816
  Link_05753                   4.018
  Link_05754                  24.692
  Link_05791                   5.780
  Link_05812                 224.163
  Link_05813                 126.031
  Link_05814                 149.477
  Link_05815                 174.798
=======
  Link_02142                 153.623
  Link_02143                 145.511
  Link_02383                   7.404
  Link_02384                  14.771
  Link_02385                  22.237
  Link_02386                  25.255
  Link_02387                  55.069
  Link_02388                  62.565
  Link_02389                  25.191
  Link_02390                  70.226
  Link_02391                 102.798
  Link_02392                  33.321
  Link_02393                 143.538
  Link_05459                  53.874
  Link_05460                 138.283
  Link_05461                 185.825
  Link_05462                 389.611
  Link_05463                 589.212
  Link_05464                  39.509
  Link_05496                2001.194
  Link_05662                  44.389
  Link_05663                   9.203
  Link_05664                  74.173
  Link_05665                 494.475
  Link_05677                 369.718
  Link_05678                  18.241
  Link_05720                1249.392
  Link_05721                1065.769
  Link_05722                  16.286
  Link_05723                  91.445
  Link_05725                  14.870
  Link_05726                 671.538
  Link_05727                   9.196
  Link_05728                 552.861
  Link_05729                 447.097
  Link_05730                 265.593
  Link_05731                 179.186
  Link_05732                 174.547
  Link_05742                  25.398
  Link_05743                 151.140
  Link_05744                 273.297
  Link_05752                  21.696
  Link_05753                   4.018
  Link_05754                  24.692
  Link_05791                   5.780
  Link_05812                 223.537
  Link_05813                 125.894
  Link_05814                 149.347
  Link_05815                 174.705
>>>>>>> b040755ab93617f94f1ab7a7036927f36e763e5a
>>>>>>> ebd46bdc835ac17077bb70c3b6f6db3a4ee81ecd
  Link_05816                  18.426
  Link_05817                  26.592
  Link_05818                  11.129
  Link_05983                  27.364
  Link_05984                  19.910
  Link_06039                   2.234
  Link_07220                  94.237
  Link_07221                 101.731
  Link_07222                 131.383
  Link_07230                 139.080
  Link_07231                 146.746
  Link_07233                 299.283
<<<<<<< HEAD
  Link_07234                 306.955
  Link_07235                 145.028
  Link_07270                  25.307
  Link_07271                  32.809
  Link_07274                  16.317
  Link_07277                  40.265
  Link_07278                  47.721
  Link_07295                  55.232
=======
<<<<<<< HEAD
  Link_07234                 306.954
=======
  Link_07234                 306.956
>>>>>>> b040755ab93617f94f1ab7a7036927f36e763e5a
  Link_07235                 145.028
  Link_07270                  25.307
  Link_07271                  32.808
  Link_07274                  16.317
<<<<<<< HEAD
  Link_07277                  40.265
  Link_07278                  47.722
  Link_07295                  55.233
=======
  Link_07277                  40.264
  Link_07278                  47.721
  Link_07295                  55.232
>>>>>>> b040755ab93617f94f1ab7a7036927f36e763e5a
>>>>>>> ebd46bdc835ac17077bb70c3b6f6db3a4ee81ecd
  Link_07296                  62.794
  Link_07297                  86.690
  Link_07303                  10.994
  Link_07306                  10.988
  Link_07321                  11.115
<<<<<<< HEAD
  Link_07464                  21.905
  Link_07578                  26.255
  Link_07579                 402.251
  Link_07580                 369.060
  Link_07687                  20.096
  Link_07865                  11.104
  Link_08891                  12.753
  Link_08912                  34.241
  Link1_to_ChengXi          2076.795
  Link2_to_ChengXi           508.345
  Link3_to_ChengXi           315.289
  Link_to_LaoDongLu          270.482
  Pump_ChengXi1             1222.997
  Pump_ChengXi2              666.121
  Pump_ChengXi3              541.525
  Pump_ChengXi4              541.525
  Pump_LaoDongLu1            149.686
  Pump_LaoDongLu2             90.422
  Pump_LaoDongLu3             66.127
  outfallpump               2052.937
  

  Analysis begun on:  Mon Aug 16 03:43:13 2021
  Analysis ended on:  Mon Aug 16 03:43:14 2021
  Total elapsed time: 00:00:01
=======
<<<<<<< HEAD
  Link_07464                  21.846
  Link_07578                  26.353
  Link_07579                 409.429
  Link_07580                 375.838
  Link_07687                  20.092
  Link_07865                  11.104
  Link_08891                  12.758
  Link_08912                  34.241
  Link1_to_ChengXi          2086.932
  Link2_to_ChengXi           507.420
  Link3_to_ChengXi           315.287
  Link_to_LaoDongLu          270.485
  Pump_ChengXi1             1077.457
  Pump_ChengXi2              795.301
  Pump_ChengXi3              573.350
  Pump_ChengXi4              508.817
  Pump_LaoDongLu1            157.817
  Pump_LaoDongLu2             76.930
  Pump_LaoDongLu3             76.930
  outfallpump               2195.078
  

  Analysis begun on:  Mon Aug 16 03:25:24 2021
  Analysis ended on:  Mon Aug 16 03:25:25 2021
  Total elapsed time: 00:00:01
=======
  Link_07464                  21.861
  Link_07578                  25.951
  Link_07579                 403.953
  Link_07580                 370.426
  Link_07687                  20.065
  Link_07865                  11.104
  Link_08891                  12.745
  Link_08912                  34.241
  Link1_to_ChengXi          2087.473
  Link2_to_ChengXi           506.817
  Link3_to_ChengXi           315.289
  Link_to_LaoDongLu          270.486
  Pump_ChengXi1             1154.448
  Pump_ChengXi2              675.672
  Pump_ChengXi3              591.860
  Pump_ChengXi4              549.917
  Pump_LaoDongLu1            150.795
  Pump_LaoDongLu2             91.646
  Pump_LaoDongLu3             63.046
  outfallpump               2077.449
  

  Analysis begun on:  Tue Aug 17 21:44:04 2021
  Analysis ended on:  Tue Aug 17 21:44:06 2021
  Total elapsed time: 00:00:02
>>>>>>> b040755ab93617f94f1ab7a7036927f36e763e5a
>>>>>>> ebd46bdc835ac17077bb70c3b6f6db3a4ee81ecd
