
  EPA STORM WATER MANAGEMENT MODEL - VERSION 5.1 (Build 5.3.0.dev0)
  --------------------------------------------------------------

  WARNING 04: minimum elevation drop used for Conduit Link_01776
  WARNING 04: minimum elevation drop used for Conduit Link_01779
  WARNING 04: minimum elevation drop used for Conduit Link_07234
  WARNING 02: maximum depth increased for Node Node_06087
  
  *********************************************************
  NOTE: The summary statistics displayed in this report are
  based on results found at every computational time step,  
  not just on results from each reporting time step.
  *********************************************************
  
  ****************
  Analysis Options
  ****************
  Flow Units ............... CMS
  Process Models:
    Rainfall/Runoff ........ YES
    RDII ................... NO
    Snowmelt ............... NO
    Groundwater ............ NO
    Flow Routing ........... YES
    Ponding Allowed ........ YES
    Water Quality .......... YES
  Infiltration Method ...... HORTON
  Flow Routing Method ...... DYNWAVE
  Surcharge Method ......... EXTRAN
  Starting Date ............ 01/02/2011 00:00:00
  Ending Date .............. 01/02/2011 06:00:00
  Antecedent Dry Days ...... 0.0
  Report Time Step ......... 00:15:00
  Wet Time Step ............ 00:05:00
  Dry Time Step ............ 01:00:00
  Routing Time Step ........ 60.00 sec
  Variable Time Step ....... YES
  Maximum Trials ........... 8
  Number of Threads ........ 4
  Head Tolerance ........... 0.001500 m
  
  
  **************************        Volume         Depth
  Runoff Quantity Continuity     hectare-m            mm
  **************************     ---------       -------
  Total Precipitation ......         1.144        40.000
  Evaporation Loss .........         0.000         0.000
  Infiltration Loss ........         0.051         1.781
  Surface Runoff ...........         1.102        38.540
  Final Storage ............         0.000         0.009
  Continuity Error (%) .....        -0.826
  
  
  **************************           COD
  Runoff Quality Continuity             kg
  **************************    ----------
  Initial Buildup ..........         0.000
  Surface Buildup ..........         0.000
  Wet Deposition ...........      3008.738
  Sweeping Removal .........         0.000
  Infiltration Loss ........       133.992
  BMP Removal ..............         0.000
  Surface Runoff ...........      2898.894
  Remaining Buildup ........         0.706
  Continuity Error (%) .....        -0.826
  
  
  **************************        Volume        Volume
  Flow Routing Continuity        hectare-m      10^6 ltr
  **************************     ---------     ---------
  Dry Weather Inflow .......         0.153         1.529
  Wet Weather Inflow .......         1.102        11.022
  Groundwater Inflow .......         0.000         0.000
  RDII Inflow ..............         0.000         0.000
  External Inflow ..........         0.000         0.000
<<<<<<< HEAD
  External Outflow .........         0.822         8.219
  Flooding Loss ............         0.568         5.678
  Evaporation Loss .........         0.000         0.000
  Exfiltration Loss ........         0.000         0.000
  Initial Stored Volume ....         0.077         0.773
  Final Stored Volume ......         0.165         1.649
  Continuity Error (%) .....       -16.671
=======
<<<<<<< HEAD
  External Outflow .........         0.812         8.116
  Flooding Loss ............         0.591         5.909
  Evaporation Loss .........         0.000         0.000
  Exfiltration Loss ........         0.000         0.000
  Initial Stored Volume ....         0.077         0.773
  Final Stored Volume ......         0.172         1.721
  Continuity Error (%) .....       -18.178
=======
  External Outflow .........         0.817         8.167
  Flooding Loss ............         0.582         5.817
  Evaporation Loss .........         0.000         0.000
  Exfiltration Loss ........         0.000         0.000
  Initial Stored Volume ....         0.077         0.773
  Final Stored Volume ......         0.175         1.748
  Continuity Error (%) .....       -18.069
>>>>>>> b040755ab93617f94f1ab7a7036927f36e763e5a
>>>>>>> ebd46bdc835ac17077bb70c3b6f6db3a4ee81ecd
  
  
  **************************           COD
  Quality Routing Continuity            kg
  **************************    ----------
  Dry Weather Inflow .......       845.606
  Wet Weather Inflow .......      2898.884
  Groundwater Inflow .......         0.000
  RDII Inflow ..............         0.000
  External Inflow ..........         0.000
<<<<<<< HEAD
  External Outflow .........      2201.023
  Flooding Loss ............      1526.769
  Exfiltration Loss ........         0.000
  Mass Reacted .............         0.000
  Initial Stored Mass ......       427.257
  Final Stored Mass ........       357.090
  Continuity Error (%) .....         2.082
=======
<<<<<<< HEAD
  External Outflow .........      2380.512
  Flooding Loss ............      1575.448
  Exfiltration Loss ........         0.000
  Mass Reacted .............         0.000
  Initial Stored Mass ......       427.257
  Final Stored Mass ........       360.736
  Continuity Error (%) .....        -3.475
=======
  External Outflow .........      2267.057
  Flooding Loss ............      1571.505
  Exfiltration Loss ........         0.000
  Mass Reacted .............         0.000
  Initial Stored Mass ......       427.257
  Final Stored Mass ........       370.853
  Continuity Error (%) .....        -0.903
>>>>>>> b040755ab93617f94f1ab7a7036927f36e763e5a
>>>>>>> ebd46bdc835ac17077bb70c3b6f6db3a4ee81ecd
  
  
  *************************
  Highest Continuity Errors
  *************************
<<<<<<< HEAD
  Node Node_07272 (-90.40%)
  Node Node_04713 (-65.82%)
  Node Node_04715 (-28.26%)
  Node Node_04714 (-23.38%)
  Node Node_04711 (-13.83%)
=======
<<<<<<< HEAD
  Node Node_07272 (-105.41%)
  Node Node_04713 (-82.74%)
  Node Node_04715 (-26.26%)
  Node Node_04714 (-23.37%)
  Node Node_04712 (20.67%)
=======
  Node Node_07272 (-121.73%)
  Node Node_04713 (-42.32%)
  Node Node_04715 (-40.52%)
  Node Node_07270 (-18.23%)
  Node Node_07271 (16.96%)
>>>>>>> b040755ab93617f94f1ab7a7036927f36e763e5a
>>>>>>> ebd46bdc835ac17077bb70c3b6f6db3a4ee81ecd
  
  
  ***************************
  Time-Step Critical Elements
  ***************************
<<<<<<< HEAD
  Link Link_01778 (64.42%)
  Link Link_02129 (23.08%)
  Link Link_05464 (1.74%)
  Link Link_07234 (1.46%)
  Link Link_02077 (1.20%)
=======
<<<<<<< HEAD
  Link Link_01778 (63.70%)
  Link Link_02129 (23.54%)
  Link Link_07234 (1.64%)
  Link Link_05464 (1.57%)
  Link Link_01558 (1.37%)
=======
  Link Link_01778 (63.87%)
  Link Link_02129 (24.95%)
  Link Link_07277 (1.78%)
  Link Link_05464 (1.44%)
  Link Link_01780 (1.23%)
>>>>>>> b040755ab93617f94f1ab7a7036927f36e763e5a
>>>>>>> ebd46bdc835ac17077bb70c3b6f6db3a4ee81ecd
  
  
  ********************************
  Highest Flow Instability Indexes
  ********************************
<<<<<<< HEAD
  Link Link_01558 (79)
  Link Link_01787 (73)
  Link Link_01778 (71)
  Link Link_01325 (66)
  Link Link_01800 (65)
=======
<<<<<<< HEAD
  Link Link_01558 (80)
  Link Link_01787 (74)
  Link Link_01778 (73)
  Link Link_01324 (65)
  Link Link_01336 (65)
=======
  Link Link_01558 (78)
  Link Link_01787 (75)
  Link Link_01778 (74)
  Link Link_01802 (69)
  Link Link_01810 (67)
>>>>>>> b040755ab93617f94f1ab7a7036927f36e763e5a
>>>>>>> ebd46bdc835ac17077bb70c3b6f6db3a4ee81ecd
  
  
  *************************
  Routing Time Step Summary
  *************************
  Minimum Time Step           :     5.00 sec
  Average Time Step           :     5.00 sec
  Maximum Time Step           :     5.00 sec
  Percent in Steady State     :     0.00
<<<<<<< HEAD
  Average Iterations per Step :     6.66
  Percent Not Converging      :    66.06
=======
<<<<<<< HEAD
  Average Iterations per Step :     6.70
  Percent Not Converging      :    72.38
=======
  Average Iterations per Step :     6.72
  Percent Not Converging      :    74.68
>>>>>>> b040755ab93617f94f1ab7a7036927f36e763e5a
>>>>>>> ebd46bdc835ac17077bb70c3b6f6db3a4ee81ecd
  
  
  ***************************
  Subcatchment Runoff Summary
  ***************************
  
  ------------------------------------------------------------------------------------------------------------------------------
                            Total      Total      Total      Total     Imperv       Perv      Total       Total     Peak  Runoff
                           Precip      Runon       Evap      Infil     Runoff     Runoff     Runoff      Runoff   Runoff   Coeff
  Subcatchment                 mm         mm         mm         mm         mm         mm         mm    10^6 ltr      CMS
  ------------------------------------------------------------------------------------------------------------------------------
  2707                      40.00       0.00       0.00       1.79      10.00      28.54      38.54        0.04     0.01   0.964
  2708                      40.00       0.00       0.00       1.79      10.00      28.54      38.54        0.04     0.01   0.964
  2709                      40.00       0.00       0.00       1.79      10.00      28.54      38.54        0.04     0.01   0.964
  2710                      40.00       0.00       0.00       1.79      10.00      28.54      38.54        0.04     0.01   0.964
  2712                      40.00       0.00       0.00       1.79      10.00      28.54      38.54        0.04     0.01   0.964
  2713                      40.00       0.00       0.00       1.79      10.00      28.54      38.54        0.04     0.01   0.964
  2714                      40.00       0.00       0.00       1.79      10.00      28.54      38.54        0.04     0.01   0.964
  2715                      40.00       0.00       0.00       1.79      10.00      28.54      38.54        0.04     0.01   0.964
  2716                      40.00       0.00       0.00       1.79      10.00      28.54      38.54        0.04     0.01   0.964
  2717                      40.00       0.00       0.00       1.79      10.00      28.54      38.54        0.04     0.01   0.964
  2718                      40.00       0.00       0.00       1.79      10.00      28.54      38.54        0.04     0.01   0.964
  2719                      40.00       0.00       0.00       1.79      10.00      28.54      38.54        0.04     0.01   0.964
  2721                      40.00       0.00       0.00       1.79      10.00      28.54      38.54        0.04     0.01   0.964
  2722                      40.00       0.00       0.00       1.79      10.00      28.54      38.54        0.04     0.01   0.964
  2723                      40.00       0.00       0.00       1.79      10.00      28.54      38.54        0.04     0.01   0.964
  2724                      40.00       0.00       0.00       1.79      10.00      28.54      38.54        0.04     0.01   0.964
  2725                      40.00       0.00       0.00       1.79      10.00      28.54      38.54        0.04     0.01   0.964
  2726                      40.00       0.00       0.00       1.79      10.00      28.54      38.54        0.04     0.01   0.964
  2727                      40.00       0.00       0.00       1.79      10.00      28.54      38.54        0.04     0.01   0.964
  2728                      40.00       0.00       0.00       1.79      10.00      28.54      38.54        0.04     0.01   0.964
  2729                      40.00       0.00       0.00       1.79      10.00      28.54      38.54        0.04     0.01   0.964
  2730                      40.00       0.00       0.00       1.79      10.00      28.54      38.54        0.04     0.01   0.964
  2731                      40.00       0.00       0.00       1.79      10.00      28.54      38.54        0.04     0.01   0.964
  2732                      40.00       0.00       0.00       1.79      10.00      28.54      38.54        0.04     0.01   0.964
  2733                      40.00       0.00       0.00       1.79      10.00      28.54      38.54        0.04     0.01   0.964
  2734                      40.00       0.00       0.00       1.79      10.00      28.54      38.54        0.04     0.01   0.964
  2735                      40.00       0.00       0.00       1.79      10.00      28.54      38.54        0.04     0.01   0.964
  2736                      40.00       0.00       0.00       1.79      10.00      28.54      38.54        0.04     0.01   0.964
  2737                      40.00       0.00       0.00       1.79      10.00      28.54      38.54        0.04     0.01   0.964
  2738                      40.00       0.00       0.00       1.79      10.00      28.54      38.54        0.04     0.01   0.964
  2739                      40.00       0.00       0.00       1.79      10.00      28.54      38.54        0.04     0.01   0.964
  2740                      40.00       0.00       0.00       1.79      10.00      28.54      38.54        0.04     0.01   0.964
  2741                      40.00       0.00       0.00       1.79      10.00      28.54      38.54        0.04     0.01   0.964
  2742                      40.00       0.00       0.00       1.79      10.00      28.54      38.54        0.04     0.01   0.964
  2743                      40.00       0.00       0.00       1.79      10.00      28.54      38.54        0.04     0.01   0.964
  2744                      40.00       0.00       0.00       1.79      10.00      28.54      38.54        0.04     0.01   0.964
  2745                      40.00       0.00       0.00       1.79      10.00      28.54      38.54        0.04     0.01   0.964
  2746                      40.00       0.00       0.00       1.79      10.00      28.54      38.54        0.04     0.01   0.964
  2747                      40.00       0.00       0.00       1.79      10.00      28.54      38.54        0.04     0.01   0.964
  2748                      40.00       0.00       0.00       1.79      10.00      28.54      38.54        0.04     0.01   0.964
  2749                      40.00       0.00       0.00       1.79      10.00      28.54      38.54        0.04     0.01   0.964
  2750                      40.00       0.00       0.00       1.79      10.00      28.54      38.54        0.04     0.01   0.964
  2751                      40.00       0.00       0.00       1.79      10.00      28.54      38.54        0.04     0.01   0.964
  2752                      40.00       0.00       0.00       1.79      10.00      28.54      38.54        0.04     0.01   0.964
  2753                      40.00       0.00       0.00       1.79      10.00      28.54      38.54        0.04     0.01   0.964
  2754                      40.00       0.00       0.00       1.79      10.00      28.54      38.54        0.04     0.01   0.964
  2755                      40.00       0.00       0.00       1.79      10.00      28.54      38.54        0.04     0.01   0.964
  2756                      40.00       0.00       0.00       1.79      10.00      28.54      38.54        0.04     0.01   0.964
  2964                      40.00       0.00       0.00       1.79      10.00      28.54      38.54        0.04     0.01   0.964
  2969                      40.00       0.00       0.00       1.79      10.00      28.54      38.54        0.04     0.01   0.964
  2970                      40.00       0.00       0.00       1.79      10.00      28.54      38.54        0.04     0.01   0.964
  2974                      40.00       0.00       0.00       1.79      10.00      28.54      38.54        0.04     0.01   0.964
  2975                      40.00       0.00       0.00       1.79      10.00      28.54      38.54        0.04     0.01   0.964
  2976                      40.00       0.00       0.00       1.79      10.00      28.54      38.54        0.04     0.01   0.964
  2977                      40.00       0.00       0.00       1.79      10.00      28.54      38.54        0.04     0.01   0.964
  2978                      40.00       0.00       0.00       1.79      10.00      28.54      38.54        0.04     0.01   0.964
  2979                      40.00       0.00       0.00       1.79      10.00      28.54      38.54        0.04     0.01   0.964
  2980                      40.00       0.00       0.00       1.79      10.00      28.54      38.54        0.04     0.01   0.964
  2981                      40.00       0.00       0.00       1.79      10.00      28.54      38.54        0.04     0.01   0.964
  2982                      40.00       0.00       0.00       1.79      10.00      28.54      38.54        0.04     0.01   0.964
  2984                      40.00       0.00       0.00       1.79      10.00      28.54      38.54        0.04     0.01   0.964
  2985                      40.00       0.00       0.00       1.79      10.00      28.54      38.54        0.04     0.01   0.964
  3925                      40.00       0.00       0.00       1.79      10.00      28.54      38.54        0.04     0.01   0.964
  3926                      40.00       0.00       0.00       1.79      10.00      28.54      38.54        0.04     0.01   0.964
  3927                      40.00       0.00       0.00       1.79      10.00      28.54      38.54        0.04     0.01   0.964
  3928                      40.00       0.00       0.00       1.79      10.00      28.54      38.54        0.04     0.01   0.964
  3929                      40.00       0.00       0.00       1.79      10.00      28.54      38.54        0.04     0.01   0.964
  3930                      40.00       0.00       0.00       1.79      10.00      28.54      38.54        0.04     0.01   0.964
  3931                      40.00       0.00       0.00       1.79      10.00      28.54      38.54        0.04     0.01   0.964
  3932                      40.00       0.00       0.00       1.79      10.00      28.54      38.54        0.04     0.01   0.964
  3933                      40.00       0.00       0.00       1.79      10.00      28.54      38.54        0.04     0.01   0.964
  3934                      40.00       0.00       0.00       1.79      10.00      28.54      38.54        0.04     0.01   0.964
  3935                      40.00       0.00       0.00       1.79      10.00      28.54      38.54        0.04     0.01   0.964
  3936                      40.00       0.00       0.00       1.79      10.00      28.54      38.54        0.04     0.01   0.964
  3937                      40.00       0.00       0.00       1.79      10.00      28.54      38.54        0.04     0.01   0.964
  3938                      40.00       0.00       0.00       1.79      10.00      28.54      38.54        0.04     0.01   0.964
  3939                      40.00       0.00       0.00       1.79      10.00      28.54      38.54        0.04     0.01   0.964
  3940                      40.00       0.00       0.00       1.79      10.00      28.54      38.54        0.04     0.01   0.964
  3941                      40.00       0.00       0.00       1.79      10.00      28.54      38.54        0.04     0.01   0.964
  3942                      40.00       0.00       0.00       1.79      10.00      28.54      38.54        0.04     0.01   0.964
  3943                      40.00       0.00       0.00       1.79      10.00      28.54      38.54        0.04     0.01   0.964
  3944                      40.00       0.00       0.00       1.79      10.00      28.54      38.54        0.04     0.01   0.964
  3945                      40.00       0.00       0.00       1.79      10.00      28.54      38.54        0.04     0.01   0.964
  3946                      40.00       0.00       0.00       1.79      10.00      28.54      38.54        0.04     0.01   0.964
  3947                      40.00       0.00       0.00       1.79      10.00      28.54      38.54        0.04     0.01   0.964
  3948                      40.00       0.00       0.00       1.79      10.00      28.54      38.54        0.04     0.01   0.964
  3949                      40.00       0.00       0.00       1.79      10.00      28.54      38.54        0.04     0.01   0.964
  3950                      40.00       0.00       0.00       1.79      10.00      28.54      38.54        0.04     0.01   0.964
  3951                      40.00       0.00       0.00       1.79      10.00      28.54      38.54        0.04     0.01   0.964
  3952                      40.00       0.00       0.00       1.79      10.00      28.54      38.54        0.04     0.01   0.964
  3953                      40.00       0.00       0.00       1.79      10.00      28.54      38.54        0.04     0.01   0.964
  3954                      40.00       0.00       0.00       1.79      10.00      28.54      38.54        0.04     0.01   0.964
  3955                      40.00       0.00       0.00       1.79      10.00      28.54      38.54        0.04     0.01   0.964
  3956                      40.00       0.00       0.00       1.79      10.00      28.54      38.54        0.04     0.01   0.964
  4032                      40.00       0.00       0.00       1.79      10.00      28.54      38.54        0.04     0.01   0.964
  4033                      40.00       0.00       0.00       1.79      10.00      28.54      38.54        0.04     0.01   0.964
  4041                      40.00       0.00       0.00       1.79      10.00      28.54      38.54        0.04     0.01   0.964
  4051                      40.00       0.00       0.00       1.79      10.00      28.54      38.54        0.04     0.01   0.964
  4055                      40.00       0.00       0.00       1.79      10.00      28.54      38.54        0.04     0.01   0.964
  4056                      40.00       0.00       0.00       1.79      10.00      28.54      38.54        0.04     0.01   0.964
  4058                      40.00       0.00       0.00       1.79      10.00      28.54      38.54        0.04     0.01   0.964
  4385                      40.00       0.00       0.00       1.79      10.00      28.54      38.54        0.04     0.01   0.964
  4386                      40.00       0.00       0.00       1.79      10.00      28.54      38.54        0.04     0.01   0.964
  4387                      40.00       0.00       0.00       1.79      10.00      28.54      38.54        0.04     0.01   0.964
  4388                      40.00       0.00       0.00       1.79      10.00      28.54      38.54        0.04     0.01   0.964
  4389                      40.00       0.00       0.00       1.79      10.00      28.54      38.54        0.04     0.01   0.964
  4390                      40.00       0.00       0.00       1.79      10.00      28.54      38.54        0.04     0.01   0.964
  4391                      40.00       0.00       0.00       1.79      10.00      28.54      38.54        0.04     0.01   0.964
  4392                      40.00       0.00       0.00       1.79      10.00      28.54      38.54        0.04     0.01   0.964
  4393                      40.00       0.00       0.00       1.79      10.00      28.54      38.54        0.04     0.01   0.964
  4394                      40.00       0.00       0.00       1.79      10.00      28.54      38.54        0.04     0.01   0.964
  4395                      40.00       0.00       0.00       1.79      10.00      28.54      38.54        0.04     0.01   0.964
  4396                      40.00       0.00       0.00       1.79      10.00      28.54      38.54        0.04     0.01   0.964
  4397                      40.00       0.00       0.00       1.79      10.00      28.54      38.54        0.04     0.01   0.964
  4398                      40.00       0.00       0.00       1.79      10.00      28.54      38.54        0.04     0.01   0.964
  4429                      40.00       0.00       0.00       1.79      10.00      28.54      38.54        0.04     0.01   0.964
  4430                      40.00       0.00       0.00       1.79      10.00      28.54      38.54        0.04     0.01   0.964
  4431                      40.00       0.00       0.00       1.79      10.00      28.54      38.54        0.04     0.01   0.964
  4432                      40.00       0.00       0.00       1.79      10.00      28.54      38.54        0.04     0.01   0.964
  4433                      40.00       0.00       0.00       1.79      10.00      28.54      38.54        0.04     0.01   0.964
  4434                      40.00       0.00       0.00       1.79      10.00      28.54      38.54        0.04     0.01   0.964
  4435                      40.00       0.00       0.00       1.79      10.00      28.54      38.54        0.04     0.01   0.964
  4436                      40.00       0.00       0.00       1.79      10.00      28.54      38.54        0.04     0.01   0.964
  4437                      40.00       0.00       0.00       1.79      10.00      28.54      38.54        0.04     0.01   0.964
  4438                      40.00       0.00       0.00       1.79      10.00      28.54      38.54        0.04     0.01   0.964
  4439                      40.00       0.00       0.00       1.79      10.00      28.54      38.54        0.04     0.01   0.964
  4440                      40.00       0.00       0.00       1.79      10.00      28.54      38.54        0.04     0.01   0.964
  4441                      40.00       0.00       0.00       1.79      10.00      28.54      38.54        0.04     0.01   0.964
  4442                      40.00       0.00       0.00       1.79      10.00      28.54      38.54        0.04     0.01   0.964
  4443                      40.00       0.00       0.00       1.79      10.00      28.54      38.54        0.04     0.01   0.964
  4444                      40.00       0.00       0.00       1.79      10.00      28.54      38.54        0.04     0.01   0.964
  4445                      40.00       0.00       0.00       1.79      10.00      28.54      38.54        0.04     0.01   0.964
  4446                      40.00       0.00       0.00       1.79      10.00      28.54      38.54        0.04     0.01   0.964
  4447                      40.00       0.00       0.00       1.79      10.00      28.54      38.54        0.04     0.01   0.964
  4448                      40.00       0.00       0.00       1.79      10.00      28.54      38.54        0.04     0.01   0.964
  4449                      40.00       0.00       0.00       1.79      10.00      28.54      38.54        0.04     0.01   0.964
  4450                      40.00       0.00       0.00       1.79      10.00      28.54      38.54        0.04     0.01   0.964
  4451                      40.00       0.00       0.00       1.79      10.00      28.54      38.54        0.04     0.01   0.964
  4452                      40.00       0.00       0.00       1.79      10.00      28.54      38.54        0.04     0.01   0.964
  4453                      40.00       0.00       0.00       1.79      10.00      28.54      38.54        0.04     0.01   0.964
  4454                      40.00       0.00       0.00       1.79      10.00      28.54      38.54        0.04     0.01   0.964
  4462                      40.00       0.00       0.00       1.79      10.00      28.54      38.54        0.04     0.01   0.964
  4463                      40.00       0.00       0.00       1.79      10.00      28.54      38.54        0.04     0.01   0.964
  4563                      40.00       0.00       0.00       1.79      10.00      28.54      38.54        0.04     0.01   0.964
  4564                      40.00       0.00       0.00       1.79      10.00      28.54      38.54        0.04     0.01   0.964
  4565                      40.00       0.00       0.00       1.79      10.00      28.54      38.54        0.04     0.01   0.964
  4566                      40.00       0.00       0.00       1.79      10.00      28.54      38.54        0.04     0.01   0.964
  4567                      40.00       0.00       0.00       1.79      10.00      28.54      38.54        0.04     0.01   0.964
  4568                      40.00       0.00       0.00       1.79      10.00      28.54      38.54        0.04     0.01   0.964
  4569                      40.00       0.00       0.00       1.79      10.00      28.54      38.54        0.04     0.01   0.964
  4570                      40.00       0.00       0.00       1.79      10.00      28.54      38.54        0.04     0.01   0.964
  4571                      40.00       0.00       0.00       1.79      10.00      28.54      38.54        0.04     0.01   0.964
  4572                      40.00       0.00       0.00       1.79      10.00      28.54      38.54        0.04     0.01   0.964
  4573                      40.00       0.00       0.00       1.79      10.00      28.54      38.54        0.04     0.01   0.964
  4574                      40.00       0.00       0.00       1.79      10.00      28.54      38.54        0.04     0.01   0.964
  4575                      40.00       0.00       0.00       1.79      10.00      28.54      38.54        0.04     0.01   0.964
  4576                      40.00       0.00       0.00       1.79      10.00      28.54      38.54        0.04     0.01   0.964
  4577                      40.00       0.00       0.00       1.79      10.00      28.54      38.54        0.04     0.01   0.964
  4578                      40.00       0.00       0.00       1.79      10.00      28.54      38.54        0.04     0.01   0.964
  4579                      40.00       0.00       0.00       1.79      10.00      28.54      38.54        0.04     0.01   0.964
  4580                      40.00       0.00       0.00       1.79      10.00      28.54      38.54        0.04     0.01   0.964
  4581                      40.00       0.00       0.00       1.79      10.00      28.54      38.54        0.04     0.01   0.964
  4624                      40.00       0.00       0.00       1.79      10.00      28.54      38.54        0.04     0.01   0.964
  4625                      40.00       0.00       0.00       1.79      10.00      28.54      38.54        0.04     0.01   0.964
  4644                      40.00       0.00       0.00       1.79      10.00      28.54      38.54        0.04     0.01   0.964
  4645                      40.00       0.00       0.00       1.79      10.00      28.54      38.54        0.04     0.01   0.964
  4646                      40.00       0.00       0.00       1.79      10.00      28.54      38.54        0.04     0.01   0.964
  4679                      40.00       0.00       0.00       1.79      10.00      28.54      38.54        0.04     0.01   0.964
  4680                      40.00       0.00       0.00       1.79      10.00      28.54      38.54        0.04     0.01   0.964
  4681                      40.00       0.00       0.00       1.79      10.00      28.54      38.54        0.04     0.01   0.964
  4682                      40.00       0.00       0.00       1.79      10.00      28.54      38.54        0.04     0.01   0.964
  4683                      40.00       0.00       0.00       1.79      10.00      28.54      38.54        0.04     0.01   0.964
  4711                      40.00       0.00       0.00       1.79      10.00      28.54      38.54        0.04     0.01   0.964
  4712                      40.00       0.00       0.00       1.79      10.00      28.54      38.54        0.04     0.01   0.964
  4713                      40.00       0.00       0.00       1.79      10.00      28.54      38.54        0.04     0.01   0.964
  4714                      40.00       0.00       0.00       1.79      10.00      28.54      38.54        0.04     0.01   0.964
  4715                      40.00       0.00       0.00       1.79      10.00      28.54      38.54        0.04     0.01   0.964
  4716                      40.00       0.00       0.00       1.79      10.00      28.54      38.54        0.04     0.01   0.964
  4717                      40.00       0.00       0.00       1.79      10.00      28.54      38.54        0.04     0.01   0.964
  4718                      40.00       0.00       0.00       1.79      10.00      28.54      38.54        0.04     0.01   0.964
  4722                      40.00       0.00       0.00       1.79      10.00      28.54      38.54        0.04     0.01   0.964
  4760                      40.00       0.00       0.00       1.79      10.00      28.54      38.54        0.04     0.01   0.964
  4761                      40.00       0.00       0.00       1.79      10.00      28.54      38.54        0.04     0.01   0.964
  4765                      40.00       0.00       0.00       1.79      10.00      28.54      38.54        0.04     0.01   0.964
  4766                      40.00       0.00       0.00       1.79      10.00      28.54      38.54        0.04     0.01   0.964
  4767                      40.00       0.00       0.00       1.79      10.00      28.54      38.54        0.04     0.01   0.964
  4768                      40.00       0.00       0.00       1.79      10.00      28.54      38.54        0.04     0.01   0.964
  4769                      40.00       0.00       0.00       1.79      10.00      28.54      38.54        0.04     0.01   0.964
  4855                      40.00       0.00       0.00       1.79      10.00      28.54      38.54        0.04     0.01   0.964
  4856                      40.00       0.00       0.00       1.79      10.00      28.54      38.54        0.04     0.01   0.964
  5284                      40.00       0.00       0.00       1.79      10.00      28.54      38.54        0.04     0.01   0.964
  5285                      40.00       0.00       0.00       1.79      10.00      28.54      38.54        0.04     0.01   0.964
  5286                      40.00       0.00       0.00       1.79      10.00      28.54      38.54        0.04     0.01   0.964
  5287                      40.00       0.00       0.00       1.79      10.00      28.54      38.54        0.04     0.01   0.964
  5288                      40.00       0.00       0.00       1.79      10.00      28.54      38.54        0.04     0.01   0.964
  5289                      40.00       0.00       0.00       1.79      10.00      28.54      38.54        0.04     0.01   0.964
  5290                      40.00       0.00       0.00       1.79      10.00      28.54      38.54        0.04     0.01   0.964
  5291                      40.00       0.00       0.00       1.79      10.00      28.54      38.54        0.04     0.01   0.964
  5292                      40.00       0.00       0.00       1.79      10.00      28.54      38.54        0.04     0.01   0.964
  5293                      40.00       0.00       0.00       1.79      10.00      28.54      38.54        0.04     0.01   0.964
  5294                      40.00       0.00       0.00       1.79      10.00      28.54      38.54        0.04     0.01   0.964
  5295                      40.00       0.00       0.00       1.79      10.00      28.54      38.54        0.04     0.01   0.964
  5296                      40.00       0.00       0.00       1.79      10.00      28.54      38.54        0.04     0.01   0.964
  5297                      40.00       0.00       0.00       1.79      10.00      28.54      38.54        0.04     0.01   0.964
  5298                      40.00       0.00       0.00       1.79      10.00      28.54      38.54        0.04     0.01   0.964
  5299                      40.00       0.00       0.00       1.79      10.00      28.54      38.54        0.04     0.01   0.964
  5300                      40.00       0.00       0.00       1.79      10.00      28.54      38.54        0.04     0.01   0.964
  5301                      40.00       0.00       0.00       1.79      10.00      28.54      38.54        0.04     0.01   0.964
  5302                      40.00       0.00       0.00       1.79      10.00      28.54      38.54        0.04     0.01   0.964
  5303                      40.00       0.00       0.00       1.79      10.00      28.54      38.54        0.04     0.01   0.964
  5304                      40.00       0.00       0.00       1.79      10.00      28.54      38.54        0.04     0.01   0.964
  5305                      40.00       0.00       0.00       1.79      10.00      28.54      38.54        0.04     0.01   0.964
  5306                      40.00       0.00       0.00       1.79      10.00      28.54      38.54        0.04     0.01   0.964
  5307                      40.00       0.00       0.00       1.79      10.00      28.54      38.54        0.04     0.01   0.964
  5308                      40.00       0.00       0.00       1.79      10.00      28.54      38.54        0.04     0.01   0.964
  5309                      40.00       0.00       0.00       1.79      10.00      28.54      38.54        0.04     0.01   0.964
  5310                      40.00       0.00       0.00       1.79      10.00      28.54      38.54        0.04     0.01   0.964
  5311                      40.00       0.00       0.00       1.79      10.00      28.54      38.54        0.04     0.01   0.964
  5312                      40.00       0.00       0.00       1.79      10.00      28.54      38.54        0.04     0.01   0.964
  5313                      40.00       0.00       0.00       1.79      10.00      28.54      38.54        0.04     0.01   0.964
  5314                      40.00       0.00       0.00       1.79      10.00      28.54      38.54        0.04     0.01   0.964
  5315                      40.00       0.00       0.00       1.79      10.00      28.54      38.54        0.04     0.01   0.964
  5316                      40.00       0.00       0.00       1.79      10.00      28.54      38.54        0.04     0.01   0.964
  5317                      40.00       0.00       0.00       1.79      10.00      28.54      38.54        0.04     0.01   0.964
  5318                      40.00       0.00       0.00       1.79      10.00      28.54      38.54        0.04     0.01   0.964
  5319                      40.00       0.00       0.00       1.79      10.00      28.54      38.54        0.04     0.01   0.964
  5320                      40.00       0.00       0.00       1.79      10.00      28.54      38.54        0.04     0.01   0.964
  5321                      40.00       0.00       0.00       1.79      10.00      28.54      38.54        0.04     0.01   0.964
  5322                      40.00       0.00       0.00       1.79      10.00      28.54      38.54        0.04     0.01   0.964
  5323                      40.00       0.00       0.00       1.79      10.00      28.54      38.54        0.04     0.01   0.964
  5324                      40.00       0.00       0.00       1.79      10.00      28.54      38.54        0.04     0.01   0.964
  5325                      40.00       0.00       0.00       1.79      10.00      28.54      38.54        0.04     0.01   0.964
  5326                      40.00       0.00       0.00       1.79      10.00      28.54      38.54        0.04     0.01   0.964
  5327                      40.00       0.00       0.00       1.79      10.00      28.54      38.54        0.04     0.01   0.964
  5328                      40.00       0.00       0.00       1.79      10.00      28.54      38.54        0.04     0.01   0.964
  5329                      40.00       0.00       0.00       1.79      10.00      28.54      38.54        0.04     0.01   0.964
  5330                      40.00       0.00       0.00       1.79      10.00      28.54      38.54        0.04     0.01   0.964
  5333                      40.00       0.00       0.00       1.79      10.00      28.54      38.54        0.04     0.01   0.964
  5334                      40.00       0.00       0.00       1.79      10.00      28.54      38.54        0.04     0.01   0.964
  6040                      40.00       0.00       0.00       1.79      10.00      28.54      38.54        0.04     0.01   0.964
  6041                      40.00       0.00       0.00       1.79      10.00      28.54      38.54        0.04     0.01   0.964
  6162                      40.00       0.00       0.00       1.79      10.00      28.54      38.54        0.04     0.01   0.964
  7207                      40.00       0.00       0.00       1.79      10.00      28.54      38.54        0.04     0.01   0.964
  7208                      40.00       0.00       0.00       1.79      10.00      28.54      38.54        0.04     0.01   0.964
  7213                      40.00       0.00       0.00       1.79      10.00      28.54      38.54        0.04     0.01   0.964
  7214                      40.00       0.00       0.00       1.79      10.00      28.54      38.54        0.04     0.01   0.964
  7219                      40.00       0.00       0.00       1.79      10.00      28.54      38.54        0.04     0.01   0.964
  7220                      40.00       0.00       0.00       1.79      10.00      28.54      38.54        0.04     0.01   0.964
  7221                      40.00       0.00       0.00       1.79      10.00      28.54      38.54        0.04     0.01   0.964
  7225                      40.00       0.00       0.00       1.79      10.00      28.54      38.54        0.04     0.01   0.964
  7229                      40.00       0.00       0.00       1.79      10.00      28.54      38.54        0.04     0.01   0.964
  7231                      40.00       0.00       0.00       1.79      10.00      28.54      38.54        0.04     0.01   0.964
  7268                      40.00       0.00       0.00       1.79      10.00      28.54      38.54        0.04     0.01   0.964
  7269                      40.00       0.00       0.00       1.79      10.00      28.54      38.54        0.04     0.01   0.964
  7271                      40.00       0.00       0.00       1.79      10.00      28.54      38.54        0.04     0.01   0.964
  7272                      40.00       0.00       0.00       1.79      10.00      28.54      38.54        0.04     0.01   0.964
  7273                      40.00       0.00       0.00       1.79      10.00      28.54      38.54        0.04     0.01   0.964
  7433                      40.00       0.00       0.00       1.79      10.00      28.54      38.54        0.04     0.01   0.964
  7434                      40.00       0.00       0.00       1.79      10.00      28.54      38.54        0.04     0.01   0.964
  7544                      40.00       0.00       0.00       1.79      10.00      28.54      38.54        0.04     0.01   0.964
  7545                      40.00       0.00       0.00       1.79      10.00      28.54      38.54        0.04     0.01   0.964
  8737                      40.00       0.00       0.00       1.79      10.00      28.54      38.54        0.04     0.01   0.964
  8818                      40.00       0.00       0.00       1.79      10.00      28.54      38.54        0.04     0.01   0.964
  9942                      40.00       0.00       0.00       1.79      10.00      28.54      38.54        0.04     0.01   0.964
  9957                      40.00       0.00       0.00       1.79      10.00      28.54      38.54        0.04     0.01   0.964
  4399                      40.00       0.00       0.00       1.71      10.00      28.48      38.48        0.01     0.00   0.962
  4400                      40.00       0.00       0.00       1.71      10.00      28.48      38.48        0.01     0.00   0.962
  4401                      40.00       0.00       0.00       1.71      10.00      28.48      38.48        0.01     0.00   0.962
  4402                      40.00       0.00       0.00       1.71      10.00      28.48      38.48        0.01     0.00   0.962
  4403                      40.00       0.00       0.00       1.71      10.00      28.48      38.48        0.01     0.00   0.962
  4404                      40.00       0.00       0.00       1.71      10.00      28.48      38.48        0.01     0.00   0.962
  4405                      40.00       0.00       0.00       1.71      10.00      28.48      38.48        0.01     0.00   0.962
  4406                      40.00       0.00       0.00       1.71      10.00      28.48      38.48        0.01     0.00   0.962
  4407                      40.00       0.00       0.00       1.71      10.00      28.48      38.48        0.01     0.00   0.962
  4408                      40.00       0.00       0.00       1.71      10.00      28.48      38.48        0.01     0.00   0.962
  4409                      40.00       0.00       0.00       1.71      10.00      28.48      38.48        0.01     0.00   0.962
  4410                      40.00       0.00       0.00       1.71      10.00      28.48      38.48        0.01     0.00   0.962
  4411                      40.00       0.00       0.00       1.71      10.00      28.48      38.48        0.01     0.00   0.962
  4412                      40.00       0.00       0.00       1.71      10.00      28.48      38.48        0.01     0.00   0.962
  4423                      40.00       0.00       0.00       1.71      10.00      28.48      38.48        0.01     0.00   0.962
  4424                      40.00       0.00       0.00       1.71      10.00      28.48      38.48        0.01     0.00   0.962
  4425                      40.00       0.00       0.00       1.71      10.00      28.48      38.48        0.01     0.00   0.962
  4426                      40.00       0.00       0.00       1.71      10.00      28.48      38.48        0.01     0.00   0.962
  4427                      40.00       0.00       0.00       1.71      10.00      28.48      38.48        0.01     0.00   0.962
  4428                      40.00       0.00       0.00       1.71      10.00      28.48      38.48        0.01     0.00   0.962
  4455                      40.00       0.00       0.00       1.71      10.00      28.48      38.48        0.01     0.00   0.962
  4456                      40.00       0.00       0.00       1.71      10.00      28.48      38.48        0.01     0.00   0.962
  4457                      40.00       0.00       0.00       1.71      10.00      28.48      38.48        0.01     0.00   0.962
  4458                      40.00       0.00       0.00       1.71      10.00      28.48      38.48        0.01     0.00   0.962
  4459                      40.00       0.00       0.00       1.71      10.00      28.48      38.48        0.01     0.00   0.962
  4460                      40.00       0.00       0.00       1.71      10.00      28.48      38.48        0.01     0.00   0.962
  4461                      40.00       0.00       0.00       1.71      10.00      28.48      38.48        0.01     0.00   0.962
  4464                      40.00       0.00       0.00       1.71      10.00      28.48      38.48        0.01     0.00   0.962
  4465                      40.00       0.00       0.00       1.71      10.00      28.48      38.48        0.01     0.00   0.962
  4466                      40.00       0.00       0.00       1.71      10.00      28.48      38.48        0.01     0.00   0.962
  4467                      40.00       0.00       0.00       1.71      10.00      28.48      38.48        0.01     0.00   0.962
  4468                      40.00       0.00       0.00       1.71      10.00      28.48      38.48        0.01     0.00   0.962
  4469                      40.00       0.00       0.00       1.71      10.00      28.48      38.48        0.01     0.00   0.962
  4470                      40.00       0.00       0.00       1.71      10.00      28.48      38.48        0.01     0.00   0.962
  4471                      40.00       0.00       0.00       1.71      10.00      28.48      38.48        0.01     0.00   0.962
  4472                      40.00       0.00       0.00       1.71      10.00      28.48      38.48        0.01     0.00   0.962
  4473                      40.00       0.00       0.00       1.71      10.00      28.48      38.48        0.01     0.00   0.962
  4474                      40.00       0.00       0.00       1.71      10.00      28.48      38.48        0.01     0.00   0.962
  4628                      40.00       0.00       0.00       1.71      10.00      28.48      38.48        0.01     0.00   0.962
  4631                      40.00       0.00       0.00       1.71      10.00      28.48      38.48        0.01     0.00   0.962
  4632                      40.00       0.00       0.00       1.71      10.00      28.48      38.48        0.01     0.00   0.962
  4633                      40.00       0.00       0.00       1.71      10.00      28.48      38.48        0.01     0.00   0.962
  4634                      40.00       0.00       0.00       1.71      10.00      28.48      38.48        0.01     0.00   0.962
  4637                      40.00       0.00       0.00       1.71      10.00      28.48      38.48        0.01     0.00   0.962
  4686                      40.00       0.00       0.00       1.71      10.00      28.48      38.48        0.01     0.00   0.962
  4687                      40.00       0.00       0.00       1.71      10.00      28.48      38.48        0.01     0.00   0.962
  4688                      40.00       0.00       0.00       1.71      10.00      28.48      38.48        0.01     0.00   0.962
  5032                      40.00       0.00       0.00       1.71      10.00      28.48      38.48        0.01     0.00   0.962
  5331                      40.00       0.00       0.00       1.71      10.00      28.48      38.48        0.01     0.00   0.962
  5332                      40.00       0.00       0.00       1.71      10.00      28.48      38.48        0.01     0.00   0.962
  5335                      40.00       0.00       0.00       1.71      10.00      28.48      38.48        0.01     0.00   0.962
  5336                      40.00       0.00       0.00       1.71      10.00      28.48      38.48        0.01     0.00   0.962
  5337                      40.00       0.00       0.00       1.71      10.00      28.48      38.48        0.01     0.00   0.962
  5338                      40.00       0.00       0.00       1.71      10.00      28.48      38.48        0.01     0.00   0.962
  5339                      40.00       0.00       0.00       1.71      10.00      28.48      38.48        0.01     0.00   0.962
  5340                      40.00       0.00       0.00       1.71      10.00      28.48      38.48        0.01     0.00   0.962
  5341                      40.00       0.00       0.00       1.71      10.00      28.48      38.48        0.01     0.00   0.962
  5342                      40.00       0.00       0.00       1.71      10.00      28.48      38.48        0.01     0.00   0.962
  5343                      40.00       0.00       0.00       1.71      10.00      28.48      38.48        0.01     0.00   0.962
  5344                      40.00       0.00       0.00       1.71      10.00      28.48      38.48        0.01     0.00   0.962
  5345                      40.00       0.00       0.00       1.71      10.00      28.48      38.48        0.01     0.00   0.962
  5346                      40.00       0.00       0.00       1.71      10.00      28.48      38.48        0.01     0.00   0.962
  5347                      40.00       0.00       0.00       1.71      10.00      28.48      38.48        0.01     0.00   0.962
  5348                      40.00       0.00       0.00       1.71      10.00      28.48      38.48        0.01     0.00   0.962
  5349                      40.00       0.00       0.00       1.71      10.00      28.48      38.48        0.01     0.00   0.962
  5350                      40.00       0.00       0.00       1.71      10.00      28.48      38.48        0.01     0.00   0.962
  6088                      40.00       0.00       0.00       1.71      10.00      28.48      38.48        0.01     0.00   0.962
  7275                      40.00       0.00       0.00       1.71      10.00      28.48      38.48        0.01     0.00   0.962
  9955                      40.00       0.00       0.00       1.71      10.00      28.48      38.48        0.01     0.00   0.962
  9956                      40.00       0.00       0.00       1.71      10.00      28.48      38.48        0.01     0.00   0.962
  
  
  ****************************
  Subcatchment Washoff Summary
  ****************************
  
  ----------------------------------
                                 COD
  Subcatchment                    kg
  ----------------------------------
  2707                        10.137
  2708                        10.137
  2709                        10.137
  2710                        10.137
  2712                        10.137
  2713                        10.137
  2714                        10.137
  2715                        10.137
  2716                        10.137
  2717                        10.137
  2718                        10.137
  2719                        10.137
  2721                        10.137
  2722                        10.137
  2723                        10.137
  2724                        10.137
  2725                        10.137
  2726                        10.137
  2727                        10.137
  2728                        10.137
  2729                        10.137
  2730                        10.137
  2731                        10.137
  2732                        10.137
  2733                        10.137
  2734                        10.137
  2735                        10.137
  2736                        10.137
  2737                        10.137
  2738                        10.137
  2739                        10.137
  2740                        10.137
  2741                        10.137
  2742                        10.137
  2743                        10.137
  2744                        10.137
  2745                        10.137
  2746                        10.137
  2747                        10.137
  2748                        10.137
  2749                        10.137
  2750                        10.137
  2751                        10.137
  2752                        10.137
  2753                        10.137
  2754                        10.137
  2755                        10.137
  2756                        10.137
  2964                        10.137
  2969                        10.137
  2970                        10.137
  2974                        10.137
  2975                        10.137
  2976                        10.137
  2977                        10.137
  2978                        10.137
  2979                        10.137
  2980                        10.137
  2981                        10.137
  2982                        10.137
  2984                        10.137
  2985                        10.137
  3925                        10.137
  3926                        10.137
  3927                        10.137
  3928                        10.137
  3929                        10.137
  3930                        10.137
  3931                        10.137
  3932                        10.137
  3933                        10.137
  3934                        10.137
  3935                        10.137
  3936                        10.137
  3937                        10.137
  3938                        10.137
  3939                        10.137
  3940                        10.137
  3941                        10.137
  3942                        10.137
  3943                        10.137
  3944                        10.137
  3945                        10.137
  3946                        10.137
  3947                        10.137
  3948                        10.137
  3949                        10.137
  3950                        10.137
  3951                        10.137
  3952                        10.137
  3953                        10.137
  3954                        10.137
  3955                        10.137
  3956                        10.137
  4032                        10.137
  4033                        10.137
  4041                        10.137
  4051                        10.137
  4055                        10.137
  4056                        10.137
  4058                        10.137
  4385                        10.137
  4386                        10.137
  4387                        10.137
  4388                        10.137
  4389                        10.137
  4390                        10.137
  4391                        10.137
  4392                        10.137
  4393                        10.137
  4394                        10.137
  4395                        10.137
  4396                        10.137
  4397                        10.137
  4398                        10.137
  4429                        10.137
  4430                        10.137
  4431                        10.137
  4432                        10.137
  4433                        10.137
  4434                        10.137
  4435                        10.137
  4436                        10.137
  4437                        10.137
  4438                        10.137
  4439                        10.137
  4440                        10.137
  4441                        10.137
  4442                        10.137
  4443                        10.137
  4444                        10.137
  4445                        10.137
  4446                        10.137
  4447                        10.137
  4448                        10.137
  4449                        10.137
  4450                        10.137
  4451                        10.137
  4452                        10.137
  4453                        10.137
  4454                        10.137
  4462                        10.137
  4463                        10.137
  4563                        10.137
  4564                        10.137
  4565                        10.137
  4566                        10.137
  4567                        10.137
  4568                        10.137
  4569                        10.137
  4570                        10.137
  4571                        10.137
  4572                        10.137
  4573                        10.137
  4574                        10.137
  4575                        10.137
  4576                        10.137
  4577                        10.137
  4578                        10.137
  4579                        10.137
  4580                        10.137
  4581                        10.137
  4624                        10.137
  4625                        10.137
  4644                        10.137
  4645                        10.137
  4646                        10.137
  4679                        10.137
  4680                        10.137
  4681                        10.137
  4682                        10.137
  4683                        10.137
  4711                        10.137
  4712                        10.137
  4713                        10.137
  4714                        10.137
  4715                        10.137
  4716                        10.137
  4717                        10.137
  4718                        10.137
  4722                        10.137
  4760                        10.137
  4761                        10.137
  4765                        10.137
  4766                        10.137
  4767                        10.137
  4768                        10.137
  4769                        10.137
  4855                        10.137
  4856                        10.137
  5284                        10.137
  5285                        10.137
  5286                        10.137
  5287                        10.137
  5288                        10.137
  5289                        10.137
  5290                        10.137
  5291                        10.137
  5292                        10.137
  5293                        10.137
  5294                        10.137
  5295                        10.137
  5296                        10.137
  5297                        10.137
  5298                        10.137
  5299                        10.137
  5300                        10.137
  5301                        10.137
  5302                        10.137
  5303                        10.137
  5304                        10.137
  5305                        10.137
  5306                        10.137
  5307                        10.137
  5308                        10.137
  5309                        10.137
  5310                        10.137
  5311                        10.137
  5312                        10.137
  5313                        10.137
  5314                        10.137
  5315                        10.137
  5316                        10.137
  5317                        10.137
  5318                        10.137
  5319                        10.137
  5320                        10.137
  5321                        10.137
  5322                        10.137
  5323                        10.137
  5324                        10.137
  5325                        10.137
  5326                        10.137
  5327                        10.137
  5328                        10.137
  5329                        10.137
  5330                        10.137
  5333                        10.137
  5334                        10.137
  6040                        10.137
  6041                        10.137
  6162                        10.137
  7207                        10.137
  7208                        10.137
  7213                        10.137
  7214                        10.137
  7219                        10.137
  7220                        10.137
  7221                        10.137
  7225                        10.137
  7229                        10.137
  7231                        10.137
  7268                        10.137
  7269                        10.137
  7271                        10.137
  7272                        10.137
  7273                        10.137
  7433                        10.137
  7434                        10.137
  7544                        10.137
  7545                        10.137
  8737                        10.137
  8818                        10.137
  9942                        10.137
  9957                        10.137
  4399                         3.036
  4400                         3.036
  4401                         3.036
  4402                         3.036
  4403                         3.036
  4404                         3.036
  4405                         3.036
  4406                         3.036
  4407                         3.036
  4408                         3.036
  4409                         3.036
  4410                         3.036
  4411                         3.036
  4412                         3.036
  4423                         3.036
  4424                         3.036
  4425                         3.036
  4426                         3.036
  4427                         3.036
  4428                         3.036
  4455                         3.036
  4456                         3.036
  4457                         3.036
  4458                         3.036
  4459                         3.036
  4460                         3.036
  4461                         3.036
  4464                         3.036
  4465                         3.036
  4466                         3.036
  4467                         3.036
  4468                         3.036
  4469                         3.036
  4470                         3.036
  4471                         3.036
  4472                         3.036
  4473                         3.036
  4474                         3.036
  4628                         3.036
  4631                         3.036
  4632                         3.036
  4633                         3.036
  4634                         3.036
  4637                         3.036
  4686                         3.036
  4687                         3.036
  4688                         3.036
  5032                         3.036
  5331                         3.036
  5332                         3.036
  5335                         3.036
  5336                         3.036
  5337                         3.036
  5338                         3.036
  5339                         3.036
  5340                         3.036
  5341                         3.036
  5342                         3.036
  5343                         3.036
  5344                         3.036
  5345                         3.036
  5346                         3.036
  5347                         3.036
  5348                         3.036
  5349                         3.036
  5350                         3.036
  6088                         3.036
  7275                         3.036
  9955                         3.036
  9956                         3.036
  ----------------------------------
  System                    2898.894
  
  
  ******************
  Node Depth Summary
  ******************
  
  ---------------------------------------------------------------------------------
                                 Average  Maximum  Maximum  Time of Max    Reported
                                   Depth    Depth      HGL   Occurrence   Max Depth
  Node                 Type       Meters   Meters   Meters  days hr:min      Meters
  ---------------------------------------------------------------------------------
<<<<<<< HEAD
  Node_02706           JUNCTION     2.29     4.31   101.15     0  04:15        0.00
  Node_02707           JUNCTION     0.60     2.77   102.20     0  04:10        0.00
  Node_02708           JUNCTION     0.51     2.82   102.57     0  04:09        0.00
  Node_02709           JUNCTION     0.59     3.04   102.67     0  04:09        0.00
  Node_02711           JUNCTION     0.28     2.75   102.66     0  04:09        0.00
  Node_02712           JUNCTION     0.28     2.72   102.62     0  04:09        0.00
  Node_02713           JUNCTION     0.32     2.71   102.56     0  04:09        0.00
  Node_02714           JUNCTION     0.08     2.17   102.57     0  04:09        0.00
  Node_02715           JUNCTION     0.33     2.57   102.37     0  04:09        0.00
  Node_02716           JUNCTION     0.38     2.51   102.23     0  04:09        0.00
  Node_02717           JUNCTION     0.44     2.56   102.20     0  04:10        0.00
  Node_02718           JUNCTION     0.45     2.62   102.22     0  04:10        0.00
  Node_02720           JUNCTION     0.47     2.66   102.22     0  04:10        0.00
  Node_02721           JUNCTION     0.77     3.01   102.25     0  04:10        0.00
  Node_02722           JUNCTION     0.14     0.52   102.32     0  04:10        0.00
  Node_02723           JUNCTION     0.70     2.87   102.17     0  04:10        0.00
  Node_02724           JUNCTION     0.56     2.66   102.08     0  04:10        0.00
  Node_02725           JUNCTION     0.59     2.60   101.97     0  04:10        0.00
  Node_02726           JUNCTION     0.67     2.59   101.85     0  04:10        0.00
  Node_02727           JUNCTION     0.77     2.60   101.73     0  04:10        0.00
  Node_02728           JUNCTION     0.19     1.66   101.74     0  04:10        0.00
  Node_02729           JUNCTION     0.82     2.55   101.61     0  04:10        0.00
  Node_02730           JUNCTION     0.84     2.45   101.48     0  04:10        0.00
  Node_02731           JUNCTION     1.26     2.72   101.31     0  04:10        0.00
  Node_02732           JUNCTION     0.83     2.19   101.21     0  04:07        0.00
  Node_02733           JUNCTION     0.81     2.27   101.27     0  04:09        0.00
  Node_02734           JUNCTION     1.09     2.60   101.31     0  04:09        0.00
  Node_02735           JUNCTION     0.99     2.50   101.31     0  04:09        0.00
  Node_02736           JUNCTION     1.17     2.70   101.31     0  04:09        0.00
  Node_02737           JUNCTION     1.14     2.69   101.31     0  04:09        0.00
  Node_02738           JUNCTION     0.96     2.57   101.34     0  04:08        0.00
  Node_02739           JUNCTION     0.82     2.52   101.38     0  04:08        0.00
  Node_02740           JUNCTION     0.82     2.56   101.40     0  04:08        0.00
  Node_02741           JUNCTION     0.47     2.12   101.41     0  04:08        0.00
  Node_02742           JUNCTION     0.82     2.61   101.42     0  04:08        0.00
  Node_02743           JUNCTION     1.22     3.05   101.42     0  04:08        0.00
  Node_02744           JUNCTION     0.39     2.09   101.43     0  04:08        0.00
  Node_02745           JUNCTION     0.94     2.78   101.40     0  04:08        0.00
  Node_02746           JUNCTION     0.82     2.67   101.36     0  04:08        0.00
  Node_02747           JUNCTION     0.08     1.01   101.36     0  04:08        0.00
  Node_02748           JUNCTION     0.06     0.92   101.37     0  04:08        0.00
  Node_02749           JUNCTION     0.81     2.61   101.25     0  04:08        0.00
  Node_02750           JUNCTION     0.80     2.62   101.23     0  04:15        0.00
  Node_02751           JUNCTION     0.77     2.61   101.21     0  04:15        0.00
  Node_02752           JUNCTION     0.76     2.65   101.19     0  04:15        0.00
  Node_02753           JUNCTION     0.78     2.70   101.18     0  04:15        0.00
  Node_02754           JUNCTION     0.81     2.84   101.16     0  04:15        0.00
  Node_02755           JUNCTION     1.74     3.77   101.16     0  04:15        0.00
  Node_02963           JUNCTION     0.27     2.30   102.21     0  04:10        0.00
  Node_02968           JUNCTION     0.13     1.27   101.39     0  04:08        0.00
  Node_02969           JUNCTION     0.16     1.55   101.43     0  04:08        0.00
  Node_02973           JUNCTION     1.26     3.27   101.16     0  04:15        0.00
  Node_02974           JUNCTION     1.33     3.46   100.58     0  04:15        0.00
  Node_02975           JUNCTION     1.34     3.48   100.61     0  04:15        0.00
  Node_02976           JUNCTION     1.46     3.65   100.84     0  04:15        0.00
  Node_02977           JUNCTION     1.58     3.87   101.20     0  04:15        0.00
  Node_02978           JUNCTION     1.51     3.82   101.35     0  04:15        0.00
  Node_02979           JUNCTION     1.22     3.30   100.42     0  04:15        0.00
  Node_02980           JUNCTION     1.09     3.13   100.21     0  04:16        0.00
  Node_02981           JUNCTION     1.04     3.07   100.02     0  04:17        0.00
  Node_02983           JUNCTION     0.12     1.22   101.34     0  04:08        0.00
  Node_02984           JUNCTION     1.90     4.17   101.15     0  04:15        0.00
  Node_03924           JUNCTION     0.13     1.00   101.82     0  01:26        0.00
  Node_03925           JUNCTION     0.41     2.06   102.43     0  04:09        0.00
  Node_03926           JUNCTION     0.06     0.96   102.43     0  04:09        0.00
  Node_03927           JUNCTION     0.39     2.05   102.43     0  04:09        0.00
  Node_03928           JUNCTION     0.41     2.08   102.42     0  04:10        0.00
  Node_03929           JUNCTION     0.42     2.10   102.40     0  04:10        0.00
  Node_03930           JUNCTION     0.45     2.13   102.38     0  04:11        0.00
  Node_03931           JUNCTION     0.44     2.12   102.36     0  04:10        0.00
  Node_03932           JUNCTION     0.48     2.15   102.32     0  04:13        0.00
  Node_03933           JUNCTION     0.49     2.13   102.25     0  04:14        0.00
  Node_03934           JUNCTION     0.14     1.39   102.25     0  04:13        0.00
  Node_03935           JUNCTION     0.56     2.17   102.14     0  04:14        0.00
  Node_03936           JUNCTION     0.58     2.12   102.05     0  04:10        0.00
  Node_03937           JUNCTION     1.24     1.77   101.93     0  04:13        0.00
  Node_03938           JUNCTION     1.63     3.27   102.46     0  01:24        0.00
  Node_03939           JUNCTION     1.74     3.41   102.44     0  01:24        0.00
  Node_03940           JUNCTION     1.82     3.48   102.41     0  01:24        0.00
  Node_03941           JUNCTION     1.90     3.53   102.34     0  01:24        0.00
  Node_03942           JUNCTION     1.94     3.53   102.28     0  04:08        0.00
  Node_03943           JUNCTION     2.03     3.58   102.19     0  01:24        0.00
  Node_03944           JUNCTION     2.13     3.69   102.17     0  01:24        0.00
  Node_03945           JUNCTION     2.18     3.78   102.20     0  01:24        0.00
  Node_03946           JUNCTION     2.24     3.90   102.26     0  01:24        0.00
  Node_03947           JUNCTION     2.45     4.35   102.24     0  04:14        0.00
  Node_03948           JUNCTION     2.36     4.38   102.23     0  04:14        0.00
  Node_03949           JUNCTION     2.43     4.52   102.22     0  04:14        0.00
  Node_03950           JUNCTION     2.26     4.43   102.20     0  04:14        0.00
  Node_03951           JUNCTION     2.19     4.44   102.13     0  04:15        0.00
  Node_03952           JUNCTION     2.12     4.45   102.04     0  04:15        0.00
  Node_03953           JUNCTION     1.94     4.32   101.89     0  04:14        0.00
  Node_03954           JUNCTION     2.73     5.07   101.65     0  04:15        0.00
  Node_03955           JUNCTION     1.59     3.86   101.35     0  04:15        0.00
  Node_04031           JUNCTION     0.38     1.03   102.26     0  01:24        0.00
  Node_04032           JUNCTION     2.14     3.89   102.25     0  01:24        0.00
  Node_04040           JUNCTION     0.85     1.87   102.42     0  01:25        0.00
  Node_04050           JUNCTION     0.32     1.63   102.59     0  02:27        0.00
  Node_04054           JUNCTION     0.10     1.28   102.42     0  04:09        0.00
  Node_04055           JUNCTION     0.23     1.51   102.32     0  04:11        0.00
  Node_04057           JUNCTION     0.27     1.60   101.91     0  01:27        0.00
  Node_04384           JUNCTION     1.74     4.03   101.61     0  04:10        0.00
  Node_04385           JUNCTION     1.48     3.77   101.69     0  04:10        0.00
  Node_04386           JUNCTION     1.49     3.78   101.72     0  04:10        0.00
  Node_04387           JUNCTION     1.50     3.79   101.75     0  04:10        0.00
  Node_04388           JUNCTION     1.52     3.79   101.79     0  04:10        0.00
  Node_04389           JUNCTION     0.23     1.43   101.80     0  04:10        0.00
  Node_04390           JUNCTION     1.52     3.78   101.80     0  04:10        0.00
  Node_04391           JUNCTION     1.54     3.77   101.83     0  04:10        0.00
  Node_04392           JUNCTION     1.66     3.88   101.84     0  04:10        0.00
  Node_04393           JUNCTION     1.55     3.74   101.85     0  04:10        0.00
  Node_04394           JUNCTION     0.52     2.21   101.85     0  04:10        0.00
  Node_04395           JUNCTION     1.56     3.70   101.85     0  04:10        0.00
  Node_04396           JUNCTION     1.56     3.65   101.86     0  04:10        0.00
  Node_04397           JUNCTION     0.43     1.97   101.86     0  04:10        0.00
  Node_04428           JUNCTION     1.59     3.64   101.86     0  04:10        0.00
  Node_04429           JUNCTION     1.59     3.60   101.84     0  04:10        0.00
  Node_04430           JUNCTION     1.59     3.57   101.85     0  04:10        0.00
  Node_04431           JUNCTION     1.39     3.26   101.83     0  04:10        0.00
  Node_04432           JUNCTION     1.31     3.15   101.83     0  04:10        0.00
  Node_04433           JUNCTION     1.15     2.95   101.83     0  04:10        0.00
  Node_04434           JUNCTION     1.42     3.23   101.82     0  04:11        0.00
  Node_04435           JUNCTION     1.27     3.03   101.81     0  04:10        0.00
  Node_04436           JUNCTION     1.67     3.41   101.80     0  04:11        0.00
  Node_04437           JUNCTION     1.80     3.50   101.79     0  04:10        0.00
  Node_04438           JUNCTION     2.10     3.79   101.80     0  04:10        0.00
  Node_04439           JUNCTION     1.16     2.83   101.80     0  04:11        0.00
  Node_04440           JUNCTION     1.15     2.80   101.81     0  04:11        0.00
  Node_04441           JUNCTION     0.91     2.48   101.81     0  04:11        0.00
  Node_04442           JUNCTION     1.22     2.85   101.82     0  04:15        0.00
  Node_04443           JUNCTION     1.08     2.69   101.82     0  04:11        0.00
  Node_04444           JUNCTION     1.08     2.65   101.83     0  04:11        0.00
  Node_04445           JUNCTION     1.01     2.57   101.84     0  04:12        0.00
  Node_04446           JUNCTION     0.98     2.51   101.85     0  04:10        0.00
  Node_04447           JUNCTION     0.92     2.41   101.85     0  04:12        0.00
  Node_04448           JUNCTION     0.93     2.42   101.87     0  04:14        0.00
  Node_04449           JUNCTION     0.94     2.43   101.89     0  04:11        0.00
  Node_04450           JUNCTION     1.09     2.58   101.90     0  01:32        0.00
  Node_04451           JUNCTION     0.91     2.38   101.92     0  01:32        0.00
  Node_04452           JUNCTION     0.69     2.12   101.94     0  01:32        0.00
  Node_04453           JUNCTION     0.47     1.72   101.94     0  01:32        0.00
  Node_04461           JUNCTION     0.87     2.29   101.91     0  01:32        0.00
  Node_04462           JUNCTION     0.85     2.29   101.94     0  01:32        0.00
  Node_04562           JUNCTION     0.81     2.46   102.05     0  01:31        0.00
  Node_04563           JUNCTION     1.16     2.92   102.04     0  01:31        0.00
  Node_04564           JUNCTION     0.95     2.67   102.05     0  01:31        0.00
  Node_04565           JUNCTION     0.97     2.70   102.06     0  01:31        0.00
  Node_04566           JUNCTION     1.10     2.86   102.06     0  01:31        0.00
  Node_04567           JUNCTION     1.06     2.82   102.04     0  01:31        0.00
  Node_04568           JUNCTION     1.08     2.83   102.02     0  04:08        0.00
  Node_04569           JUNCTION     1.23     3.04   102.01     0  04:06        0.00
  Node_04570           JUNCTION     0.74     2.27   102.01     0  04:11        0.00
  Node_04571           JUNCTION     1.24     2.99   101.92     0  01:31        0.00
  Node_04572           JUNCTION     2.63     4.42   101.95     0  04:10        0.00
  Node_04573           JUNCTION     2.30     4.12   101.96     0  04:10        0.00
  Node_04574           JUNCTION     2.47     3.66   101.96     0  04:10        0.00
  Node_04575           JUNCTION     2.78     4.66   101.97     0  04:10        0.00
  Node_04576           JUNCTION     1.39     3.31   101.96     0  04:10        0.00
  Node_04577           JUNCTION     1.42     3.37   101.95     0  04:10        0.00
  Node_04578           JUNCTION     1.46     3.42   101.93     0  04:10        0.00
  Node_04579           JUNCTION     1.50     3.49   101.90     0  04:10        0.00
  Node_04580           JUNCTION     0.68     1.98   101.76     0  01:32        0.00
  Node_04623           JUNCTION     0.33     2.02   101.68     0  04:10        0.00
  Node_04624           JUNCTION     0.74     2.38   101.84     0  04:10        0.00
  Node_04643           JUNCTION     0.63     1.98   101.89     0  01:32        0.00
  Node_04644           JUNCTION     0.63     1.99   101.83     0  04:11        0.00
  Node_04645           JUNCTION     0.84     2.05   101.65     0  01:32        0.00
  Node_04678           JUNCTION     0.56     2.13   101.85     0  04:10        0.00
  Node_04679           JUNCTION     0.15     1.50   101.68     0  04:10        0.00
  Node_04680           JUNCTION     1.50     3.79   101.56     0  04:15        0.00
  Node_04681           JUNCTION     1.47     3.75   101.47     0  04:15        0.00
  Node_04682           JUNCTION     0.20     0.95   101.96     0  04:10        0.00
  Node_04710           JUNCTION     0.38     1.90   101.89     0  05:09        0.00
[...]
  Link_01782                 513.044
  Link_01783                  13.369
  Link_01784                 535.184
  Link_01785                 546.840
  Link_01786                  63.840
  Link_01787                  35.017
  Link_01788                 654.689
  Link_01789                 667.906
  Link_01790                  19.249
  Link_01791                  18.149
  Link_01792                  16.799
  Link_01793                 727.320
  Link_01794                 739.208
  Link_01795                 750.946
  Link_01796                 762.851
  Link_01797                 773.056
  Link_01798                1389.676
  Link_01799                1381.988
  Link_01800                1398.788
  Link_01801                 816.192
  Link_01802                1328.127
  Link_01803                1371.374
  Link_01804                1204.944
  Link_01805                1193.531
  Link_01806                1181.930
  Link_01807                1169.770
  Link_01808                  17.240
  Link_01809                1142.136
  Link_01810                1120.081
  Link_01811                  10.177
  Link_01812                  55.493
  Link_01813                  45.711
  Link_01814                1077.473
  Link_01815                1065.302
  Link_01816                1041.046
  Link_01817                  11.957
  Link_01818                1001.445
  Link_01819                 974.135
  Link_01820                  15.377
  Link_01821                  28.525
  Link_01822                   6.556
  Link_01823                 222.174
  Link_01824                 218.763
>>>>>>> b040755ab93617f94f1ab7a7036927f36e763e5a
>>>>>>> ebd46bdc835ac17077bb70c3b6f6db3a4ee81ecd
  Link_01825                  59.108
  Link_01826                  62.285
  Link_01827                   3.034
  Link_01828                  68.547
  Link_01829                   6.538
  Link_01830                  78.365
  Link_01831                   3.034
<<<<<<< HEAD
  Link_01832                  84.643
=======
  Link_01832                  84.642
>>>>>>> ebd46bdc835ac17077bb70c3b6f6db3a4ee81ecd
  Link_01833                  87.827
  Link_01834                  94.197
  Link_01835                   3.034
  Link_01836                  47.506
  Link_01837                  20.904
  Link_01838                  33.811
  Link_01839                  44.233
  Link_01840                  41.160
  Link_01841                  38.087
  Link_01842                  30.209
  Link_01843                  23.973
  Link_01844                  20.895
<<<<<<< HEAD
  Link_02074                  13.689
  Link_02075                 189.138
  Link_02076                 210.553
  Link_02077                  24.282
  Link_02078                 244.450
  Link_02079                  15.592
  Link_02080                 270.667
  Link_02081                 281.172
  Link_02082                 291.674
  Link_02083                  15.709
  Link_02084                  14.094
  Link_02085                 657.751
  Link_02086                 642.304
  Link_02087                 635.245
  Link_02088                 627.856
  Link_02089                 620.934
  Link_02090                 646.598
  Link_02091                 635.990
  Link_02092                 625.311
  Link_02093                  13.710
  Link_02094                 589.988
  Link_02095                 579.155
  Link_02096                 557.378
  Link_02097                  20.789
  Link_02098                  44.087
  Link_02099                 546.757
  Link_02100                 536.121
  Link_02101                  29.366
  Link_02102                 512.541
  Link_02103                 483.228
  Link_02104                  30.174
  Link_02105                 390.656
  Link_02106                  18.230
  Link_02107                  10.417
  Link_02108                 376.826
  Link_02109                 366.230
  Link_02110                 323.320
  Link_02111                 212.138
  Link_02112                  19.169
  Link_02113                 154.853
  Link_02114                  45.906
  Link_02115                  42.725
  Link_02116                  39.613
  Link_02117                  36.560
  Link_02118                  33.474
=======
<<<<<<< HEAD
  Link_02074                  13.733
  Link_02075                 183.841
  Link_02076                 205.297
  Link_02077                  24.030
  Link_02078                 239.035
  Link_02079                  15.556
  Link_02080                 265.223
  Link_02081                 275.772
  Link_02082                 286.370
  Link_02083                  15.753
  Link_02084                  14.007
  Link_02085                 633.548
  Link_02086                 618.280
  Link_02087                 611.003
  Link_02088                 602.863
  Link_02089                 595.749
  Link_02090                 639.138
  Link_02091                 628.153
  Link_02092                 617.168
  Link_02093                  13.757
  Link_02094                 580.945
  Link_02095                 569.976
  Link_02096                 549.474
  Link_02097                  20.777
  Link_02098                  45.106
  Link_02099                 538.620
  Link_02100                 527.823
  Link_02101                  29.163
  Link_02102                 504.123
  Link_02103                 476.250
  Link_02104                  30.522
  Link_02105                 388.618
  Link_02106                  18.937
  Link_02107                  10.455
  Link_02108                 372.744
  Link_02109                 362.625
  Link_02110                 323.317
  Link_02111                 212.138
  Link_02112                  19.098
  Link_02113                 154.854
  Link_02114                  45.907
  Link_02115                  42.726
=======
  Link_02074                  13.653
  Link_02075                 189.288
  Link_02076                 209.763
  Link_02077                  24.500
  Link_02078                 243.081
  Link_02079                  15.530
  Link_02080                 269.311
  Link_02081                 279.768
  Link_02082                 290.254
  Link_02083                  15.615
  Link_02084                  14.227
  Link_02085                 671.549
  Link_02086                 656.502
  Link_02087                 649.628
  Link_02088                 642.261
  Link_02089                 635.318
  Link_02090                 659.261
  Link_02091                 648.300
  Link_02092                 637.263
  Link_02093                  13.763
  Link_02094                 601.265
  Link_02095                 590.174
  Link_02096                 568.295
  Link_02097                  20.784
  Link_02098                  44.402
  Link_02099                 557.302
  Link_02100                 546.572
  Link_02101                  29.703
  Link_02102                 523.459
  Link_02103                 494.796
  Link_02104                  30.531
  Link_02105                 404.833
  Link_02106                  17.985
  Link_02107                  10.533
  Link_02108                 391.526
  Link_02109                 381.119
  Link_02110                 323.323
  Link_02111                 212.142
  Link_02112                  19.152
  Link_02113                 154.853
  Link_02114                  45.906
  Link_02115                  42.725
>>>>>>> b040755ab93617f94f1ab7a7036927f36e763e5a
  Link_02116                  39.614
  Link_02117                  36.561
  Link_02118                  33.475
>>>>>>> ebd46bdc835ac17077bb70c3b6f6db3a4ee81ecd
  Link_02123                   6.578
  Link_02124                   9.642
  Link_02125                  12.712
  Link_02126                  15.713
<<<<<<< HEAD
  Link_02127                  30.371
  Link_02128                  27.282
  Link_02129                  24.234
=======
<<<<<<< HEAD
  Link_02127                  30.372
  Link_02128                  27.283
  Link_02129                  24.235
=======
  Link_02127                  30.371
  Link_02128                  27.282
  Link_02129                  24.234
>>>>>>> b040755ab93617f94f1ab7a7036927f36e763e5a
>>>>>>> ebd46bdc835ac17077bb70c3b6f6db3a4ee81ecd
  Link_02130                  21.183
  Link_02131                  18.091
  Link_02132                  14.995
  Link_02133                  11.904
  Link_02134                 158.071
<<<<<<< HEAD
  Link_02135                 161.285
  Link_02136                 171.075
  Link_02137                   6.574
  Link_02138                 196.901
  Link_02139                 193.684
=======
<<<<<<< HEAD
  Link_02135                 161.285
  Link_02136                 171.074
  Link_02137                   6.574
  Link_02138                 196.901
  Link_02139                 193.683
>>>>>>> ebd46bdc835ac17077bb70c3b6f6db3a4ee81ecd
  Link_02140                 190.398
  Link_02141                 187.289
  Link_02142                 183.946
  Link_02143                 174.264
<<<<<<< HEAD
  Link_02383                  10.673
  Link_02384                  17.738
  Link_02385                  27.561
  Link_02386                  28.056
  Link_02387                  65.994
  Link_02388                  75.728
  Link_02389                  26.991
  Link_02390                  85.809
  Link_02391                 122.634
  Link_02392                  40.326
  Link_02393                 171.923
  Link_05459                  95.717
  Link_05460                 199.114
  Link_05461                 239.180
  Link_05462                 505.211
  Link_05463                 729.117
  Link_05464                  42.853
  Link_05496                2241.674
  Link_05662                  59.609
  Link_05663                  11.931
  Link_05664                  62.543
  Link_05665                 486.756
  Link_05677                 335.546
  Link_05678                  20.860
  Link_05720                1313.503
  Link_05721                1100.804
  Link_05722                  19.066
  Link_05723                 105.722
  Link_05725                  18.829
  Link_05726                 664.673
  Link_05727                  11.889
  Link_05728                 601.339
  Link_05729                 522.820
  Link_05730                 319.966
  Link_05731                 215.221
  Link_05732                 209.000
  Link_05742                  28.446
  Link_05743                 160.602
  Link_05744                 302.589
  Link_05752                 106.565
  Link_05753                   4.811
  Link_05754                  27.073
  Link_05791                   6.551
  Link_05812                 251.875
  Link_05813                 144.399
  Link_05814                 123.109
  Link_05815                 144.801
  Link_05816                  22.380
  Link_05817                  32.108
  Link_05818                  11.879
  Link_05983                  32.697
  Link_05984                  22.615
  Link_06039                   3.030
  Link_07220                 213.672
  Link_07221                 223.906
  Link_07222                 241.163
  Link_07230                 251.590
  Link_07231                 262.248
  Link_07233                 456.985
  Link_07234                 467.565
  Link_07235                 185.485
  Link_07270                  49.865
  Link_07271                  90.661
  Link_07274                  25.452
  Link_07277                 132.970
  Link_07278                 172.183
  Link_07295                 156.508
  Link_07296                 174.333
  Link_07297                 203.406
  Link_07303                  14.336
  Link_07306                  32.307
  Link_07321                  11.911
  Link_07464                  24.747
  Link_07578                  28.047
  Link_07579                 471.858
  Link_07580                 431.639
  Link_07687                  22.583
  Link_07865                  11.877
  Link_08891                  15.673
  Link_08912                  37.134
  Link1_to_ChengXi          2349.382
  Link2_to_ChengXi           501.259
  Link3_to_ChengXi           478.720
  Link_to_LaoDongLu          326.523
  Pump_ChengXi1             1197.270
  Pump_ChengXi2              837.148
  Pump_ChengXi3              696.873
  Pump_ChengXi4              696.873
  Pump_LaoDongLu1            158.548
  Pump_LaoDongLu2            109.204
  Pump_LaoDongLu3             88.116
  outfallpump               2201.235
  

  Analysis begun on:  Mon Aug 16 03:43:02 2021
  Analysis ended on:  Mon Aug 16 03:43:04 2021
=======
  Link_02383                  10.832
  Link_02384                  17.466
  Link_02385                  27.441
  Link_02386                  28.164
  Link_02387                  66.182
  Link_02388                  75.874
  Link_02389                  26.638
  Link_02390                  85.904
  Link_02391                 122.196
  Link_02392                  40.289
  Link_02393                 170.925
  Link_05459                  97.923
  Link_05460                 193.729
  Link_05461                 233.786
  Link_05462                 487.179
  Link_05463                 714.218
  Link_05464                  41.864
  Link_05496                2189.823
  Link_05662                  60.039
  Link_05663                  11.822
  Link_05664                  60.643
  Link_05665                 481.964
  Link_05677                 330.722
  Link_05678                  20.841
  Link_05720                1274.256
  Link_05721                1066.943
  Link_05722                  19.103
  Link_05723                 105.722
  Link_05725                  18.829
  Link_05726                 640.433
  Link_05727                  11.948
  Link_05728                 592.511
  Link_05729                 514.289
  Link_05730                 319.964
  Link_05731                 215.225
  Link_05732                 208.999
  Link_05742                  28.444
  Link_05743                 155.510
  Link_05744                 297.288
  Link_05752                 122.602
  Link_05753                   4.811
  Link_05754                  27.073
  Link_05791                   6.551
  Link_05812                 250.554
  Link_05813                 143.492
  Link_05814                 122.473
  Link_05815                 145.286
  Link_05816                  22.380
  Link_05817                  32.108
  Link_05818                  11.879
  Link_05983                  32.696
  Link_05984                  22.638
  Link_06039                   3.030
  Link_07220                 252.895
  Link_07221                 263.142
  Link_07222                 279.482
  Link_07230                 289.920
  Link_07231                 300.623
  Link_07233                 494.949
  Link_07234                 505.441
  Link_07235                 184.777
  Link_07270                  62.456
  Link_07271                 115.830
  Link_07274                  27.816
  Link_07277                 170.734
  Link_07278                 228.399
  Link_07295                 191.303
  Link_07296                 213.885
  Link_07297                 242.697
  Link_07303                  14.240
  Link_07306                  34.596
  Link_07321                  11.911
  Link_07464                  24.761
  Link_07578                  28.589
  Link_07579                 465.511
  Link_07580                 426.956
  Link_07687                  22.645
  Link_07865                  11.877
  Link_08891                  15.704
  Link_08912                  37.178
  Link1_to_ChengXi          2299.504
  Link2_to_ChengXi           496.631
  Link3_to_ChengXi           516.561
  Link_to_LaoDongLu          326.521
  Pump_ChengXi1             1034.700
  Pump_ChengXi2              896.196
  Pump_ChengXi3              767.572
  Pump_ChengXi4              722.918
  Pump_LaoDongLu1            171.380
  Pump_LaoDongLu2             90.352
  Pump_LaoDongLu3             90.352
  outfallpump               2380.715
  

  Analysis begun on:  Mon Aug 16 03:25:13 2021
  Analysis ended on:  Mon Aug 16 03:25:15 2021
=======
  Link_02135                 161.290
  Link_02136                 171.079
  Link_02137                   6.573
  Link_02138                 196.905
  Link_02139                 193.687
  Link_02140                 190.401
  Link_02141                 187.295
  Link_02142                 183.951
  Link_02143                 174.269
  Link_02383                  10.726
  Link_02384                  17.738
  Link_02385                  27.565
  Link_02386                  28.012
  Link_02387                  65.870
  Link_02388                  75.582
  Link_02389                  26.737
  Link_02390                  85.691
  Link_02391                 122.580
  Link_02392                  40.050
  Link_02393                 171.638
  Link_05459                  95.163
  Link_05460                 199.268
  Link_05461                 240.898
  Link_05462                 492.722
  Link_05463                 715.559
  Link_05464                  41.466
  Link_05496                2227.321
  Link_05662                  60.533
  Link_05663                  11.861
  Link_05664                  61.969
  Link_05665                 483.849
  Link_05677                 333.938
  Link_05678                  20.854
  Link_05720                1315.979
  Link_05721                1108.142
  Link_05722                  19.032
  Link_05723                 105.722
  Link_05725                  18.829
  Link_05726                 678.830
  Link_05727                  11.953
  Link_05728                 612.753
  Link_05729                 533.637
  Link_05730                 319.970
  Link_05731                 215.230
  Link_05732                 209.003
  Link_05742                  28.350
  Link_05743                 161.028
  Link_05744                 301.187
  Link_05752                 110.979
  Link_05753                   4.811
  Link_05754                  27.073
  Link_05791                   6.551
  Link_05812                 251.838
  Link_05813                 144.525
  Link_05814                 123.446
  Link_05815                 145.176
  Link_05816                  22.380
  Link_05817                  32.108
  Link_05818                  11.878
  Link_05983                  32.779
  Link_05984                  22.721
  Link_06039                   3.030
  Link_07220                 271.559
  Link_07221                 281.990
  Link_07222                 296.297
  Link_07230                 306.724
  Link_07231                 317.413
  Link_07233                 510.976
  Link_07234                 521.469
  Link_07235                 184.032
  Link_07270                  62.729
  Link_07271                 122.644
  Link_07274                  29.418
  Link_07277                 190.307
  Link_07278                 239.157
  Link_07295                 208.043
  Link_07296                 232.842
  Link_07297                 261.473
  Link_07303                  14.339
  Link_07306                  36.275
  Link_07321                  11.911
  Link_07464                  24.766
  Link_07578                  27.910
  Link_07579                 483.889
  Link_07580                 444.916
  Link_07687                  22.639
  Link_07865                  11.877
  Link_08891                  15.522
  Link_08912                  37.102
  Link1_to_ChengXi          2335.026
  Link2_to_ChengXi           498.462
  Link3_to_ChengXi           532.579
  Link_to_LaoDongLu          326.527
  Pump_ChengXi1             1085.977
  Pump_ChengXi2              808.958
  Pump_ChengXi3              780.722
  Pump_ChengXi4              761.351
  Pump_LaoDongLu1            166.412
  Pump_LaoDongLu2            115.798
  Pump_LaoDongLu3             88.780
  outfallpump               2267.279
  

  Analysis begun on:  Tue Aug 17 21:43:59 2021
  Analysis ended on:  Tue Aug 17 21:44:01 2021
>>>>>>> b040755ab93617f94f1ab7a7036927f36e763e5a
>>>>>>> ebd46bdc835ac17077bb70c3b6f6db3a4ee81ecd
  Total elapsed time: 00:00:02