
  EPA STORM WATER MANAGEMENT MODEL - VERSION 5.1 (Build 5.3.0.dev0)
  --------------------------------------------------------------

  WARNING 04: minimum elevation drop used for Conduit Link_01776
  WARNING 04: minimum elevation drop used for Conduit Link_01779
  WARNING 04: minimum elevation drop used for Conduit Link_07234
  WARNING 02: maximum depth increased for Node Node_06087
  
  *********************************************************
  NOTE: The summary statistics displayed in this report are
  based on results found at every computational time step,  
  not just on results from each reporting time step.
  *********************************************************
  
  ****************
  Analysis Options
  ****************
  Flow Units ............... CMS
  Process Models:
    Rainfall/Runoff ........ YES
    RDII ................... NO
    Snowmelt ............... NO
    Groundwater ............ NO
    Flow Routing ........... YES
    Ponding Allowed ........ YES
    Water Quality .......... YES
  Infiltration Method ...... HORTON
  Flow Routing Method ...... DYNWAVE
  Surcharge Method ......... EXTRAN
  Starting Date ............ 01/02/2011 00:00:00
  Ending Date .............. 01/02/2011 06:00:00
  Antecedent Dry Days ...... 0.0
  Report Time Step ......... 00:15:00
  Wet Time Step ............ 00:05:00
  Dry Time Step ............ 01:00:00
  Routing Time Step ........ 60.00 sec
  Variable Time Step ....... YES
  Maximum Trials ........... 8
  Number of Threads ........ 1
  Head Tolerance ........... 0.001500 m
  
  
  **************************        Volume         Depth
  Runoff Quantity Continuity     hectare-m            mm
  **************************     ---------       -------
  Total Precipitation ......         0.572        20.000
  Evaporation Loss .........         0.000         0.000
  Infiltration Loss ........         0.035         1.218
  Surface Runoff ...........         0.541        18.902
  Final Storage ............         0.000         0.009
  Continuity Error (%) .....        -0.647
  
  
  **************************           COD
  Runoff Quality Continuity             kg
  **************************    ----------
  Initial Buildup ..........         0.000
  Surface Buildup ..........         0.000
  Wet Deposition ...........      1504.369
  Sweeping Removal .........         0.000
  Infiltration Loss ........        91.637
  BMP Removal ..............         0.000
  Surface Runoff ...........      1421.757
  Remaining Buildup ........         0.706
  Continuity Error (%) .....        -0.647
  
  
  **************************        Volume        Volume
  Flow Routing Continuity        hectare-m      10^6 ltr
  **************************     ---------     ---------
  Dry Weather Inflow .......         0.153         1.529
  Wet Weather Inflow .......         0.541         5.406
  Groundwater Inflow .......         0.000         0.000
  RDII Inflow ..............         0.000         0.000
  External Inflow ..........         0.000         0.000
<<<<<<< HEAD
  External Outflow .........         0.560         5.599
  Flooding Loss ............         0.249         2.491
  Evaporation Loss .........         0.000         0.000
  Exfiltration Loss ........         0.000         0.000
  Initial Stored Volume ....         0.077         0.773
  Final Stored Volume ......         0.170         1.698
  Continuity Error (%) .....       -26.982
=======
<<<<<<< HEAD
  External Outflow .........         0.556         5.561
  Flooding Loss ............         0.236         2.363
  Evaporation Loss .........         0.000         0.000
  Exfiltration Loss ........         0.000         0.000
  Initial Stored Volume ....         0.077         0.773
  Final Stored Volume ......         0.167         1.670
  Continuity Error (%) .....       -24.479
=======
  External Outflow .........         0.550         5.498
  Flooding Loss ............         0.234         2.337
  Evaporation Loss .........         0.000         0.000
  Exfiltration Loss ........         0.000         0.000
  Initial Stored Volume ....         0.077         0.773
  Final Stored Volume ......         0.180         1.802
  Continuity Error (%) .....       -25.032
>>>>>>> b040755ab93617f94f1ab7a7036927f36e763e5a
>>>>>>> ebd46bdc835ac17077bb70c3b6f6db3a4ee81ecd
  
  
  **************************           COD
  Quality Routing Continuity            kg
  **************************    ----------
  Dry Weather Inflow .......       845.606
  Wet Weather Inflow .......      1421.746
  Groundwater Inflow .......         0.000
  RDII Inflow ..............         0.000
  External Inflow ..........         0.000
<<<<<<< HEAD
  External Outflow .........      1167.530
  Flooding Loss ............       610.371
  Exfiltration Loss ........         0.000
  Mass Reacted .............         0.000
  Initial Stored Mass ......       427.257
  Final Stored Mass ........       375.312
  Continuity Error (%) .....        20.092
=======
<<<<<<< HEAD
  External Outflow .........      1621.766
  Flooding Loss ............       583.184
  Exfiltration Loss ........         0.000
  Mass Reacted .............         0.000
  Initial Stored Mass ......       427.257
  Final Stored Mass ........       362.066
  Continuity Error (%) .....         4.735
=======
  External Outflow .........      1268.044
  Flooding Loss ............       583.179
  Exfiltration Loss ........         0.000
  Mass Reacted .............         0.000
  Initial Stored Mass ......       427.257
  Final Stored Mass ........       393.651
  Continuity Error (%) .....        16.690
>>>>>>> b040755ab93617f94f1ab7a7036927f36e763e5a
>>>>>>> ebd46bdc835ac17077bb70c3b6f6db3a4ee81ecd
  
  
  *************************
  Highest Continuity Errors
  *************************
<<<<<<< HEAD
  Node Node_04713 (-75.57%)
  Node Node_07272 (-59.63%)
  Node Node_04714 (-34.02%)
  Node Node_04711 (-20.00%)
  Node Node_07270 (-12.44%)
=======
<<<<<<< HEAD
  Node Node_04713 (-63.60%)
  Node Node_04714 (-28.74%)
  Node Node_07272 (-16.26%)
  Node Node_04711 (-15.76%)
  Node Node_04715 (-12.12%)
=======
  Node Node_04713 (-83.01%)
  Node Node_04714 (-23.21%)
  Node Node_04715 (-19.09%)
  Node Node_04711 (-17.96%)
  Node Node_07272 (-15.50%)
>>>>>>> b040755ab93617f94f1ab7a7036927f36e763e5a
>>>>>>> ebd46bdc835ac17077bb70c3b6f6db3a4ee81ecd
  
  
  ***************************
  Time-Step Critical Elements
  ***************************
<<<<<<< HEAD
  Link Link_01778 (69.79%)
  Link Link_02129 (20.00%)
  Link Link_01558 (1.69%)
  Link Link_05464 (1.62%)
  Link Link_07234 (1.32%)
=======
<<<<<<< HEAD
  Link Link_01778 (69.38%)
  Link Link_02129 (19.47%)
  Link Link_01558 (3.45%)
  Link Link_05464 (1.83%)
  Link Link_07234 (1.09%)
=======
  Link Link_01778 (69.61%)
  Link Link_02129 (21.11%)
  Link Link_05464 (1.76%)
  Link Link_01780 (1.11%)
  Link Link_07234 (1.04%)
>>>>>>> b040755ab93617f94f1ab7a7036927f36e763e5a
>>>>>>> ebd46bdc835ac17077bb70c3b6f6db3a4ee81ecd
  
  
  ********************************
  Highest Flow Instability Indexes
  ********************************
<<<<<<< HEAD
  Link Link_01778 (42)
  Link Link_01558 (40)
  Link Link_01787 (39)
  Link Link_01777 (36)
  Link Link_01800 (35)
=======
<<<<<<< HEAD
  Link Link_01778 (43)
  Link Link_01558 (41)
  Link Link_01787 (38)
  Link Link_01777 (36)
  Link Link_01800 (35)
=======
  Link Link_01778 (42)
  Link Link_01558 (41)
  Link Link_01787 (39)
  Link Link_01777 (37)
  Link Link_01802 (36)
>>>>>>> b040755ab93617f94f1ab7a7036927f36e763e5a
>>>>>>> ebd46bdc835ac17077bb70c3b6f6db3a4ee81ecd
  
  
  *************************
  Routing Time Step Summary
  *************************
  Minimum Time Step           :     5.00 sec
  Average Time Step           :     5.00 sec
  Maximum Time Step           :     5.00 sec
  Percent in Steady State     :     0.00
<<<<<<< HEAD
  Average Iterations per Step :     4.76
  Percent Not Converging      :    40.97
=======
  Average Iterations per Step :     4.75
<<<<<<< HEAD
  Percent Not Converging      :    40.42
=======
  Percent Not Converging      :    40.14
>>>>>>> b040755ab93617f94f1ab7a7036927f36e763e5a
>>>>>>> ebd46bdc835ac17077bb70c3b6f6db3a4ee81ecd
  
  
  ***************************
  Subcatchment Runoff Summary
  ***************************
  
  ------------------------------------------------------------------------------------------------------------------------------
                            Total      Total      Total      Total     Imperv       Perv      Total       Total     Peak  Runoff
                           Precip      Runon       Evap      Infil     Runoff     Runoff     Runoff      Runoff   Runoff   Coeff
  Subcatchment                 mm         mm         mm         mm         mm         mm         mm    10^6 ltr      CMS
  ------------------------------------------------------------------------------------------------------------------------------
  2707                      20.00       0.00       0.00       1.22       5.00      13.90      18.90        0.02     0.01   0.945
  2708                      20.00       0.00       0.00       1.22       5.00      13.90      18.90        0.02     0.01   0.945
  2709                      20.00       0.00       0.00       1.22       5.00      13.90      18.90        0.02     0.01   0.945
  2710                      20.00       0.00       0.00       1.22       5.00      13.90      18.90        0.02     0.01   0.945
  2712                      20.00       0.00       0.00       1.22       5.00      13.90      18.90        0.02     0.01   0.945
  2713                      20.00       0.00       0.00       1.22       5.00      13.90      18.90        0.02     0.01   0.945
  2714                      20.00       0.00       0.00       1.22       5.00      13.90      18.90        0.02     0.01   0.945
  2715                      20.00       0.00       0.00       1.22       5.00      13.90      18.90        0.02     0.01   0.945
  2716                      20.00       0.00       0.00       1.22       5.00      13.90      18.90        0.02     0.01   0.945
  2717                      20.00       0.00       0.00       1.22       5.00      13.90      18.90        0.02     0.01   0.945
  2718                      20.00       0.00       0.00       1.22       5.00      13.90      18.90        0.02     0.01   0.945
  2719                      20.00       0.00       0.00       1.22       5.00      13.90      18.90        0.02     0.01   0.945
  2721                      20.00       0.00       0.00       1.22       5.00      13.90      18.90        0.02     0.01   0.945
  2722                      20.00       0.00       0.00       1.22       5.00      13.90      18.90        0.02     0.01   0.945
  2723                      20.00       0.00       0.00       1.22       5.00      13.90      18.90        0.02     0.01   0.945
  2724                      20.00       0.00       0.00       1.22       5.00      13.90      18.90        0.02     0.01   0.945
  2725                      20.00       0.00       0.00       1.22       5.00      13.90      18.90        0.02     0.01   0.945
  2726                      20.00       0.00       0.00       1.22       5.00      13.90      18.90        0.02     0.01   0.945
  2727                      20.00       0.00       0.00       1.22       5.00      13.90      18.90        0.02     0.01   0.945
  2728                      20.00       0.00       0.00       1.22       5.00      13.90      18.90        0.02     0.01   0.945
  2729                      20.00       0.00       0.00       1.22       5.00      13.90      18.90        0.02     0.01   0.945
  2730                      20.00       0.00       0.00       1.22       5.00      13.90      18.90        0.02     0.01   0.945
  2731                      20.00       0.00       0.00       1.22       5.00      13.90      18.90        0.02     0.01   0.945
  2732                      20.00       0.00       0.00       1.22       5.00      13.90      18.90        0.02     0.01   0.945
  2733                      20.00       0.00       0.00       1.22       5.00      13.90      18.90        0.02     0.01   0.945
  2734                      20.00       0.00       0.00       1.22       5.00      13.90      18.90        0.02     0.01   0.945
  2735                      20.00       0.00       0.00       1.22       5.00      13.90      18.90        0.02     0.01   0.945
  2736                      20.00       0.00       0.00       1.22       5.00      13.90      18.90        0.02     0.01   0.945
  2737                      20.00       0.00       0.00       1.22       5.00      13.90      18.90        0.02     0.01   0.945
  2738                      20.00       0.00       0.00       1.22       5.00      13.90      18.90        0.02     0.01   0.945
  2739                      20.00       0.00       0.00       1.22       5.00      13.90      18.90        0.02     0.01   0.945
  2740                      20.00       0.00       0.00       1.22       5.00      13.90      18.90        0.02     0.01   0.945
  2741                      20.00       0.00       0.00       1.22       5.00      13.90      18.90        0.02     0.01   0.945
  2742                      20.00       0.00       0.00       1.22       5.00      13.90      18.90        0.02     0.01   0.945
  2743                      20.00       0.00       0.00       1.22       5.00      13.90      18.90        0.02     0.01   0.945
  2744                      20.00       0.00       0.00       1.22       5.00      13.90      18.90        0.02     0.01   0.945
  2745                      20.00       0.00       0.00       1.22       5.00      13.90      18.90        0.02     0.01   0.945
  2746                      20.00       0.00       0.00       1.22       5.00      13.90      18.90        0.02     0.01   0.945
  2747                      20.00       0.00       0.00       1.22       5.00      13.90      18.90        0.02     0.01   0.945
  2748                      20.00       0.00       0.00       1.22       5.00      13.90      18.90        0.02     0.01   0.945
  2749                      20.00       0.00       0.00       1.22       5.00      13.90      18.90        0.02     0.01   0.945
  2750                      20.00       0.00       0.00       1.22       5.00      13.90      18.90        0.02     0.01   0.945
  2751                      20.00       0.00       0.00       1.22       5.00      13.90      18.90        0.02     0.01   0.945
  2752                      20.00       0.00       0.00       1.22       5.00      13.90      18.90        0.02     0.01   0.945
  2753                      20.00       0.00       0.00       1.22       5.00      13.90      18.90        0.02     0.01   0.945
  2754                      20.00       0.00       0.00       1.22       5.00      13.90      18.90        0.02     0.01   0.945
  2755                      20.00       0.00       0.00       1.22       5.00      13.90      18.90        0.02     0.01   0.945
  2756                      20.00       0.00       0.00       1.22       5.00      13.90      18.90        0.02     0.01   0.945
  2964                      20.00       0.00       0.00       1.22       5.00      13.90      18.90        0.02     0.01   0.945
  2969                      20.00       0.00       0.00       1.22       5.00      13.90      18.90        0.02     0.01   0.945
  2970                      20.00       0.00       0.00       1.22       5.00      13.90      18.90        0.02     0.01   0.945
  2974                      20.00       0.00       0.00       1.22       5.00      13.90      18.90        0.02     0.01   0.945
  2975                      20.00       0.00       0.00       1.22       5.00      13.90      18.90        0.02     0.01   0.945
  2976                      20.00       0.00       0.00       1.22       5.00      13.90      18.90        0.02     0.01   0.945
  2977                      20.00       0.00       0.00       1.22       5.00      13.90      18.90        0.02     0.01   0.945
  2978                      20.00       0.00       0.00       1.22       5.00      13.90      18.90        0.02     0.01   0.945
  2979                      20.00       0.00       0.00       1.22       5.00      13.90      18.90        0.02     0.01   0.945
  2980                      20.00       0.00       0.00       1.22       5.00      13.90      18.90        0.02     0.01   0.945
  2981                      20.00       0.00       0.00       1.22       5.00      13.90      18.90        0.02     0.01   0.945
  2982                      20.00       0.00       0.00       1.22       5.00      13.90      18.90        0.02     0.01   0.945
  2984                      20.00       0.00       0.00       1.22       5.00      13.90      18.90        0.02     0.01   0.945
  2985                      20.00       0.00       0.00       1.22       5.00      13.90      18.90        0.02     0.01   0.945
  3925                      20.00       0.00       0.00       1.22       5.00      13.90      18.90        0.02     0.01   0.945
  3926                      20.00       0.00       0.00       1.22       5.00      13.90      18.90        0.02     0.01   0.945
  3927                      20.00       0.00       0.00       1.22       5.00      13.90      18.90        0.02     0.01   0.945
  3928                      20.00       0.00       0.00       1.22       5.00      13.90      18.90        0.02     0.01   0.945
  3929                      20.00       0.00       0.00       1.22       5.00      13.90      18.90        0.02     0.01   0.945
  3930                      20.00       0.00       0.00       1.22       5.00      13.90      18.90        0.02     0.01   0.945
  3931                      20.00       0.00       0.00       1.22       5.00      13.90      18.90        0.02     0.01   0.945
  3932                      20.00       0.00       0.00       1.22       5.00      13.90      18.90        0.02     0.01   0.945
  3933                      20.00       0.00       0.00       1.22       5.00      13.90      18.90        0.02     0.01   0.945
  3934                      20.00       0.00       0.00       1.22       5.00      13.90      18.90        0.02     0.01   0.945
  3935                      20.00       0.00       0.00       1.22       5.00      13.90      18.90        0.02     0.01   0.945
  3936                      20.00       0.00       0.00       1.22       5.00      13.90      18.90        0.02     0.01   0.945
  3937                      20.00       0.00       0.00       1.22       5.00      13.90      18.90        0.02     0.01   0.945
  3938                      20.00       0.00       0.00       1.22       5.00      13.90      18.90        0.02     0.01   0.945
  3939                      20.00       0.00       0.00       1.22       5.00      13.90      18.90        0.02     0.01   0.945
  3940                      20.00       0.00       0.00       1.22       5.00      13.90      18.90        0.02     0.01   0.945
  3941                      20.00       0.00       0.00       1.22       5.00      13.90      18.90        0.02     0.01   0.945
  3942                      20.00       0.00       0.00       1.22       5.00      13.90      18.90        0.02     0.01   0.945
  3943                      20.00       0.00       0.00       1.22       5.00      13.90      18.90        0.02     0.01   0.945
  3944                      20.00       0.00       0.00       1.22       5.00      13.90      18.90        0.02     0.01   0.945
  3945                      20.00       0.00       0.00       1.22       5.00      13.90      18.90        0.02     0.01   0.945
  3946                      20.00       0.00       0.00       1.22       5.00      13.90      18.90        0.02     0.01   0.945
  3947                      20.00       0.00       0.00       1.22       5.00      13.90      18.90        0.02     0.01   0.945
  3948                      20.00       0.00       0.00       1.22       5.00      13.90      18.90        0.02     0.01   0.945
  3949                      20.00       0.00       0.00       1.22       5.00      13.90      18.90        0.02     0.01   0.945
  3950                      20.00       0.00       0.00       1.22       5.00      13.90      18.90        0.02     0.01   0.945
  3951                      20.00       0.00       0.00       1.22       5.00      13.90      18.90        0.02     0.01   0.945
  3952                      20.00       0.00       0.00       1.22       5.00      13.90      18.90        0.02     0.01   0.945
  3953                      20.00       0.00       0.00       1.22       5.00      13.90      18.90        0.02     0.01   0.945
  3954                      20.00       0.00       0.00       1.22       5.00      13.90      18.90        0.02     0.01   0.945
  3955                      20.00       0.00       0.00       1.22       5.00      13.90      18.90        0.02     0.01   0.945
  3956                      20.00       0.00       0.00       1.22       5.00      13.90      18.90        0.02     0.01   0.945
  4032                      20.00       0.00       0.00       1.22       5.00      13.90      18.90        0.02     0.01   0.945
  4033                      20.00       0.00       0.00       1.22       5.00      13.90      18.90        0.02     0.01   0.945
  4041                      20.00       0.00       0.00       1.22       5.00      13.90      18.90        0.02     0.01   0.945
  4051                      20.00       0.00       0.00       1.22       5.00      13.90      18.90        0.02     0.01   0.945
  4055                      20.00       0.00       0.00       1.22       5.00      13.90      18.90        0.02     0.01   0.945
  4056                      20.00       0.00       0.00       1.22       5.00      13.90      18.90        0.02     0.01   0.945
  4058                      20.00       0.00       0.00       1.22       5.00      13.90      18.90        0.02     0.01   0.945
  4385                      20.00       0.00       0.00       1.22       5.00      13.90      18.90        0.02     0.01   0.945
  4386                      20.00       0.00       0.00       1.22       5.00      13.90      18.90        0.02     0.01   0.945
  4387                      20.00       0.00       0.00       1.22       5.00      13.90      18.90        0.02     0.01   0.945
  4388                      20.00       0.00       0.00       1.22       5.00      13.90      18.90        0.02     0.01   0.945
  4389                      20.00       0.00       0.00       1.22       5.00      13.90      18.90        0.02     0.01   0.945
  4390                      20.00       0.00       0.00       1.22       5.00      13.90      18.90        0.02     0.01   0.945
  4391                      20.00       0.00       0.00       1.22       5.00      13.90      18.90        0.02     0.01   0.945
  4392                      20.00       0.00       0.00       1.22       5.00      13.90      18.90        0.02     0.01   0.945
  4393                      20.00       0.00       0.00       1.22       5.00      13.90      18.90        0.02     0.01   0.945
  4394                      20.00       0.00       0.00       1.22       5.00      13.90      18.90        0.02     0.01   0.945
  4395                      20.00       0.00       0.00       1.22       5.00      13.90      18.90        0.02     0.01   0.945
  4396                      20.00       0.00       0.00       1.22       5.00      13.90      18.90        0.02     0.01   0.945
  4397                      20.00       0.00       0.00       1.22       5.00      13.90      18.90        0.02     0.01   0.945
  4398                      20.00       0.00       0.00       1.22       5.00      13.90      18.90        0.02     0.01   0.945
  4429                      20.00       0.00       0.00       1.22       5.00      13.90      18.90        0.02     0.01   0.945
  4430                      20.00       0.00       0.00       1.22       5.00      13.90      18.90        0.02     0.01   0.945
  4431                      20.00       0.00       0.00       1.22       5.00      13.90      18.90        0.02     0.01   0.945
  4432                      20.00       0.00       0.00       1.22       5.00      13.90      18.90        0.02     0.01   0.945
  4433                      20.00       0.00       0.00       1.22       5.00      13.90      18.90        0.02     0.01   0.945
  4434                      20.00       0.00       0.00       1.22       5.00      13.90      18.90        0.02     0.01   0.945
  4435                      20.00       0.00       0.00       1.22       5.00      13.90      18.90        0.02     0.01   0.945
  4436                      20.00       0.00       0.00       1.22       5.00      13.90      18.90        0.02     0.01   0.945
  4437                      20.00       0.00       0.00       1.22       5.00      13.90      18.90        0.02     0.01   0.945
  4438                      20.00       0.00       0.00       1.22       5.00      13.90      18.90        0.02     0.01   0.945
  4439                      20.00       0.00       0.00       1.22       5.00      13.90      18.90        0.02     0.01   0.945
  4440                      20.00       0.00       0.00       1.22       5.00      13.90      18.90        0.02     0.01   0.945
  4441                      20.00       0.00       0.00       1.22       5.00      13.90      18.90        0.02     0.01   0.945
  4442                      20.00       0.00       0.00       1.22       5.00      13.90      18.90        0.02     0.01   0.945
  4443                      20.00       0.00       0.00       1.22       5.00      13.90      18.90        0.02     0.01   0.945
  4444                      20.00       0.00       0.00       1.22       5.00      13.90      18.90        0.02     0.01   0.945
  4445                      20.00       0.00       0.00       1.22       5.00      13.90      18.90        0.02     0.01   0.945
  4446                      20.00       0.00       0.00       1.22       5.00      13.90      18.90        0.02     0.01   0.945
  4447                      20.00       0.00       0.00       1.22       5.00      13.90      18.90        0.02     0.01   0.945
  4448                      20.00       0.00       0.00       1.22       5.00      13.90      18.90        0.02     0.01   0.945
  4449                      20.00       0.00       0.00       1.22       5.00      13.90      18.90        0.02     0.01   0.945
  4450                      20.00       0.00       0.00       1.22       5.00      13.90      18.90        0.02     0.01   0.945
  4451                      20.00       0.00       0.00       1.22       5.00      13.90      18.90        0.02     0.01   0.945
  4452                      20.00       0.00       0.00       1.22       5.00      13.90      18.90        0.02     0.01   0.945
  4453                      20.00       0.00       0.00       1.22       5.00      13.90      18.90        0.02     0.01   0.945
  4454                      20.00       0.00       0.00       1.22       5.00      13.90      18.90        0.02     0.01   0.945
  4462                      20.00       0.00       0.00       1.22       5.00      13.90      18.90        0.02     0.01   0.945
  4463                      20.00       0.00       0.00       1.22       5.00      13.90      18.90        0.02     0.01   0.945
  4563                      20.00       0.00       0.00       1.22       5.00      13.90      18.90        0.02     0.01   0.945
  4564                      20.00       0.00       0.00       1.22       5.00      13.90      18.90        0.02     0.01   0.945
  4565                      20.00       0.00       0.00       1.22       5.00      13.90      18.90        0.02     0.01   0.945
  4566                      20.00       0.00       0.00       1.22       5.00      13.90      18.90        0.02     0.01   0.945
  4567                      20.00       0.00       0.00       1.22       5.00      13.90      18.90        0.02     0.01   0.945
  4568                      20.00       0.00       0.00       1.22       5.00      13.90      18.90        0.02     0.01   0.945
  4569                      20.00       0.00       0.00       1.22       5.00      13.90      18.90        0.02     0.01   0.945
  4570                      20.00       0.00       0.00       1.22       5.00      13.90      18.90        0.02     0.01   0.945
  4571                      20.00       0.00       0.00       1.22       5.00      13.90      18.90        0.02     0.01   0.945
  4572                      20.00       0.00       0.00       1.22       5.00      13.90      18.90        0.02     0.01   0.945
  4573                      20.00       0.00       0.00       1.22       5.00      13.90      18.90        0.02     0.01   0.945
  4574                      20.00       0.00       0.00       1.22       5.00      13.90      18.90        0.02     0.01   0.945
  4575                      20.00       0.00       0.00       1.22       5.00      13.90      18.90        0.02     0.01   0.945
  4576                      20.00       0.00       0.00       1.22       5.00      13.90      18.90        0.02     0.01   0.945
  4577                      20.00       0.00       0.00       1.22       5.00      13.90      18.90        0.02     0.01   0.945
  4578                      20.00       0.00       0.00       1.22       5.00      13.90      18.90        0.02     0.01   0.945
  4579                      20.00       0.00       0.00       1.22       5.00      13.90      18.90        0.02     0.01   0.945
  4580                      20.00       0.00       0.00       1.22       5.00      13.90      18.90        0.02     0.01   0.945
  4581                      20.00       0.00       0.00       1.22       5.00      13.90      18.90        0.02     0.01   0.945
  4624                      20.00       0.00       0.00       1.22       5.00      13.90      18.90        0.02     0.01   0.945
  4625                      20.00       0.00       0.00       1.22       5.00      13.90      18.90        0.02     0.01   0.945
  4644                      20.00       0.00       0.00       1.22       5.00      13.90      18.90        0.02     0.01   0.945
  4645                      20.00       0.00       0.00       1.22       5.00      13.90      18.90        0.02     0.01   0.945
  4646                      20.00       0.00       0.00       1.22       5.00      13.90      18.90        0.02     0.01   0.945
  4679                      20.00       0.00       0.00       1.22       5.00      13.90      18.90        0.02     0.01   0.945
  4680                      20.00       0.00       0.00       1.22       5.00      13.90      18.90        0.02     0.01   0.945
  4681                      20.00       0.00       0.00       1.22       5.00      13.90      18.90        0.02     0.01   0.945
  4682                      20.00       0.00       0.00       1.22       5.00      13.90      18.90        0.02     0.01   0.945
  4683                      20.00       0.00       0.00       1.22       5.00      13.90      18.90        0.02     0.01   0.945
  4711                      20.00       0.00       0.00       1.22       5.00      13.90      18.90        0.02     0.01   0.945
  4712                      20.00       0.00       0.00       1.22       5.00      13.90      18.90        0.02     0.01   0.945
  4713                      20.00       0.00       0.00       1.22       5.00      13.90      18.90        0.02     0.01   0.945
  4714                      20.00       0.00       0.00       1.22       5.00      13.90      18.90        0.02     0.01   0.945
  4715                      20.00       0.00       0.00       1.22       5.00      13.90      18.90        0.02     0.01   0.945
  4716                      20.00       0.00       0.00       1.22       5.00      13.90      18.90        0.02     0.01   0.945
  4717                      20.00       0.00       0.00       1.22       5.00      13.90      18.90        0.02     0.01   0.945
  4718                      20.00       0.00       0.00       1.22       5.00      13.90      18.90        0.02     0.01   0.945
  4722                      20.00       0.00       0.00       1.22       5.00      13.90      18.90        0.02     0.01   0.945
  4760                      20.00       0.00       0.00       1.22       5.00      13.90      18.90        0.02     0.01   0.945
  4761                      20.00       0.00       0.00       1.22       5.00      13.90      18.90        0.02     0.01   0.945
  4765                      20.00       0.00       0.00       1.22       5.00      13.90      18.90        0.02     0.01   0.945
  4766                      20.00       0.00       0.00       1.22       5.00      13.90      18.90        0.02     0.01   0.945
  4767                      20.00       0.00       0.00       1.22       5.00      13.90      18.90        0.02     0.01   0.945
  4768                      20.00       0.00       0.00       1.22       5.00      13.90      18.90        0.02     0.01   0.945
  4769                      20.00       0.00       0.00       1.22       5.00      13.90      18.90        0.02     0.01   0.945
  4855                      20.00       0.00       0.00       1.22       5.00      13.90      18.90        0.02     0.01   0.945
  4856                      20.00       0.00       0.00       1.22       5.00      13.90      18.90        0.02     0.01   0.945
  5284                      20.00       0.00       0.00       1.22       5.00      13.90      18.90        0.02     0.01   0.945
  5285                      20.00       0.00       0.00       1.22       5.00      13.90      18.90        0.02     0.01   0.945
  5286                      20.00       0.00       0.00       1.22       5.00      13.90      18.90        0.02     0.01   0.945
  5287                      20.00       0.00       0.00       1.22       5.00      13.90      18.90        0.02     0.01   0.945
  5288                      20.00       0.00       0.00       1.22       5.00      13.90      18.90        0.02     0.01   0.945
  5289                      20.00       0.00       0.00       1.22       5.00      13.90      18.90        0.02     0.01   0.945
  5290                      20.00       0.00       0.00       1.22       5.00      13.90      18.90        0.02     0.01   0.945
  5291                      20.00       0.00       0.00       1.22       5.00      13.90      18.90        0.02     0.01   0.945
  5292                      20.00       0.00       0.00       1.22       5.00      13.90      18.90        0.02     0.01   0.945
  5293                      20.00       0.00       0.00       1.22       5.00      13.90      18.90        0.02     0.01   0.945
  5294                      20.00       0.00       0.00       1.22       5.00      13.90      18.90        0.02     0.01   0.945
  5295                      20.00       0.00       0.00       1.22       5.00      13.90      18.90        0.02     0.01   0.945
  5296                      20.00       0.00       0.00       1.22       5.00      13.90      18.90        0.02     0.01   0.945
  5297                      20.00       0.00       0.00       1.22       5.00      13.90      18.90        0.02     0.01   0.945
  5298                      20.00       0.00       0.00       1.22       5.00      13.90      18.90        0.02     0.01   0.945
  5299                      20.00       0.00       0.00       1.22       5.00      13.90      18.90        0.02     0.01   0.945
  5300                      20.00       0.00       0.00       1.22       5.00      13.90      18.90        0.02     0.01   0.945
  5301                      20.00       0.00       0.00       1.22       5.00      13.90      18.90        0.02     0.01   0.945
  5302                      20.00       0.00       0.00       1.22       5.00      13.90      18.90        0.02     0.01   0.945
  5303                      20.00       0.00       0.00       1.22       5.00      13.90      18.90        0.02     0.01   0.945
  5304                      20.00       0.00       0.00       1.22       5.00      13.90      18.90        0.02     0.01   0.945
  5305                      20.00       0.00       0.00       1.22       5.00      13.90      18.90        0.02     0.01   0.945
  5306                      20.00       0.00       0.00       1.22       5.00      13.90      18.90        0.02     0.01   0.945
  5307                      20.00       0.00       0.00       1.22       5.00      13.90      18.90        0.02     0.01   0.945
  5308                      20.00       0.00       0.00       1.22       5.00      13.90      18.90        0.02     0.01   0.945
  5309                      20.00       0.00       0.00       1.22       5.00      13.90      18.90        0.02     0.01   0.945
  5310                      20.00       0.00       0.00       1.22       5.00      13.90      18.90        0.02     0.01   0.945
  5311                      20.00       0.00       0.00       1.22       5.00      13.90      18.90        0.02     0.01   0.945
  5312                      20.00       0.00       0.00       1.22       5.00      13.90      18.90        0.02     0.01   0.945
  5313                      20.00       0.00       0.00       1.22       5.00      13.90      18.90        0.02     0.01   0.945
  5314                      20.00       0.00       0.00       1.22       5.00      13.90      18.90        0.02     0.01   0.945
  5315                      20.00       0.00       0.00       1.22       5.00      13.90      18.90        0.02     0.01   0.945
  5316                      20.00       0.00       0.00       1.22       5.00      13.90      18.90        0.02     0.01   0.945
  5317                      20.00       0.00       0.00       1.22       5.00      13.90      18.90        0.02     0.01   0.945
  5318                      20.00       0.00       0.00       1.22       5.00      13.90      18.90        0.02     0.01   0.945
  5319                      20.00       0.00       0.00       1.22       5.00      13.90      18.90        0.02     0.01   0.945
  5320                      20.00       0.00       0.00       1.22       5.00      13.90      18.90        0.02     0.01   0.945
  5321                      20.00       0.00       0.00       1.22       5.00      13.90      18.90        0.02     0.01   0.945
  5322                      20.00       0.00       0.00       1.22       5.00      13.90      18.90        0.02     0.01   0.945
  5323                      20.00       0.00       0.00       1.22       5.00      13.90      18.90        0.02     0.01   0.945
  5324                      20.00       0.00       0.00       1.22       5.00      13.90      18.90        0.02     0.01   0.945
  5325                      20.00       0.00       0.00       1.22       5.00      13.90      18.90        0.02     0.01   0.945
  5326                      20.00       0.00       0.00       1.22       5.00      13.90      18.90        0.02     0.01   0.945
  5327                      20.00       0.00       0.00       1.22       5.00      13.90      18.90        0.02     0.01   0.945
  5328                      20.00       0.00       0.00       1.22       5.00      13.90      18.90        0.02     0.01   0.945
  5329                      20.00       0.00       0.00       1.22       5.00      13.90      18.90        0.02     0.01   0.945
  5330                      20.00       0.00       0.00       1.22       5.00      13.90      18.90        0.02     0.01   0.945
  5333                      20.00       0.00       0.00       1.22       5.00      13.90      18.90        0.02     0.01   0.945
  5334                      20.00       0.00       0.00       1.22       5.00      13.90      18.90        0.02     0.01   0.945
  6040                      20.00       0.00       0.00       1.22       5.00      13.90      18.90        0.02     0.01   0.945
  6041                      20.00       0.00       0.00       1.22       5.00      13.90      18.90        0.02     0.01   0.945
  6162                      20.00       0.00       0.00       1.22       5.00      13.90      18.90        0.02     0.01   0.945
  7207                      20.00       0.00       0.00       1.22       5.00      13.90      18.90        0.02     0.01   0.945
  7208                      20.00       0.00       0.00       1.22       5.00      13.90      18.90        0.02     0.01   0.945
  7213                      20.00       0.00       0.00       1.22       5.00      13.90      18.90        0.02     0.01   0.945
  7214                      20.00       0.00       0.00       1.22       5.00      13.90      18.90        0.02     0.01   0.945
  7219                      20.00       0.00       0.00       1.22       5.00      13.90      18.90        0.02     0.01   0.945
  7220                      20.00       0.00       0.00       1.22       5.00      13.90      18.90        0.02     0.01   0.945
  7221                      20.00       0.00       0.00       1.22       5.00      13.90      18.90        0.02     0.01   0.945
  7225                      20.00       0.00       0.00       1.22       5.00      13.90      18.90        0.02     0.01   0.945
  7229                      20.00       0.00       0.00       1.22       5.00      13.90      18.90        0.02     0.01   0.945
  7231                      20.00       0.00       0.00       1.22       5.00      13.90      18.90        0.02     0.01   0.945
  7268                      20.00       0.00       0.00       1.22       5.00      13.90      18.90        0.02     0.01   0.945
  7269                      20.00       0.00       0.00       1.22       5.00      13.90      18.90        0.02     0.01   0.945
  7271                      20.00       0.00       0.00       1.22       5.00      13.90      18.90        0.02     0.01   0.945
  7272                      20.00       0.00       0.00       1.22       5.00      13.90      18.90        0.02     0.01   0.945
  7273                      20.00       0.00       0.00       1.22       5.00      13.90      18.90        0.02     0.01   0.945
  7433                      20.00       0.00       0.00       1.22       5.00      13.90      18.90        0.02     0.01   0.945
  7434                      20.00       0.00       0.00       1.22       5.00      13.90      18.90        0.02     0.01   0.945
  7544                      20.00       0.00       0.00       1.22       5.00      13.90      18.90        0.02     0.01   0.945
  7545                      20.00       0.00       0.00       1.22       5.00      13.90      18.90        0.02     0.01   0.945
  8737                      20.00       0.00       0.00       1.22       5.00      13.90      18.90        0.02     0.01   0.945
  8818                      20.00       0.00       0.00       1.22       5.00      13.90      18.90        0.02     0.01   0.945
  9942                      20.00       0.00       0.00       1.22       5.00      13.90      18.90        0.02     0.01   0.945
  9957                      20.00       0.00       0.00       1.22       5.00      13.90      18.90        0.02     0.01   0.945
  4399                      20.00       0.00       0.00       1.14       5.00      13.95      18.95        0.01     0.00   0.947
  4400                      20.00       0.00       0.00       1.14       5.00      13.95      18.95        0.01     0.00   0.947
  4401                      20.00       0.00       0.00       1.14       5.00      13.95      18.95        0.01     0.00   0.947
  4402                      20.00       0.00       0.00       1.14       5.00      13.95      18.95        0.01     0.00   0.947
  4403                      20.00       0.00       0.00       1.14       5.00      13.95      18.95        0.01     0.00   0.947
  4404                      20.00       0.00       0.00       1.14       5.00      13.95      18.95        0.01     0.00   0.947
  4405                      20.00       0.00       0.00       1.14       5.00      13.95      18.95        0.01     0.00   0.947
  4406                      20.00       0.00       0.00       1.14       5.00      13.95      18.95        0.01     0.00   0.947
  4407                      20.00       0.00       0.00       1.14       5.00      13.95      18.95        0.01     0.00   0.947
  4408                      20.00       0.00       0.00       1.14       5.00      13.95      18.95        0.01     0.00   0.947
  4409                      20.00       0.00       0.00       1.14       5.00      13.95      18.95        0.01     0.00   0.947
  4410                      20.00       0.00       0.00       1.14       5.00      13.95      18.95        0.01     0.00   0.947
  4411                      20.00       0.00       0.00       1.14       5.00      13.95      18.95        0.01     0.00   0.947
  4412                      20.00       0.00       0.00       1.14       5.00      13.95      18.95        0.01     0.00   0.947
  4423                      20.00       0.00       0.00       1.14       5.00      13.95      18.95        0.01     0.00   0.947
  4424                      20.00       0.00       0.00       1.14       5.00      13.95      18.95        0.01     0.00   0.947
  4425                      20.00       0.00       0.00       1.14       5.00      13.95      18.95        0.01     0.00   0.947
  4426                      20.00       0.00       0.00       1.14       5.00      13.95      18.95        0.01     0.00   0.947
  4427                      20.00       0.00       0.00       1.14       5.00      13.95      18.95        0.01     0.00   0.947
  4428                      20.00       0.00       0.00       1.14       5.00      13.95      18.95        0.01     0.00   0.947
  4455                      20.00       0.00       0.00       1.14       5.00      13.95      18.95        0.01     0.00   0.947
  4456                      20.00       0.00       0.00       1.14       5.00      13.95      18.95        0.01     0.00   0.947
  4457                      20.00       0.00       0.00       1.14       5.00      13.95      18.95        0.01     0.00   0.947
  4458                      20.00       0.00       0.00       1.14       5.00      13.95      18.95        0.01     0.00   0.947
  4459                      20.00       0.00       0.00       1.14       5.00      13.95      18.95        0.01     0.00   0.947
  4460                      20.00       0.00       0.00       1.14       5.00      13.95      18.95        0.01     0.00   0.947
  4461                      20.00       0.00       0.00       1.14       5.00      13.95      18.95        0.01     0.00   0.947
  4464                      20.00       0.00       0.00       1.14       5.00      13.95      18.95        0.01     0.00   0.947
  4465                      20.00       0.00       0.00       1.14       5.00      13.95      18.95        0.01     0.00   0.947
  4466                      20.00       0.00       0.00       1.14       5.00      13.95      18.95        0.01     0.00   0.947
  4467                      20.00       0.00       0.00       1.14       5.00      13.95      18.95        0.01     0.00   0.947
  4468                      20.00       0.00       0.00       1.14       5.00      13.95      18.95        0.01     0.00   0.947
  4469                      20.00       0.00       0.00       1.14       5.00      13.95      18.95        0.01     0.00   0.947
  4470                      20.00       0.00       0.00       1.14       5.00      13.95      18.95        0.01     0.00   0.947
  4471                      20.00       0.00       0.00       1.14       5.00      13.95      18.95        0.01     0.00   0.947
  4472                      20.00       0.00       0.00       1.14       5.00      13.95      18.95        0.01     0.00   0.947
  4473                      20.00       0.00       0.00       1.14       5.00      13.95      18.95        0.01     0.00   0.947
  4474                      20.00       0.00       0.00       1.14       5.00      13.95      18.95        0.01     0.00   0.947
  4628                      20.00       0.00       0.00       1.14       5.00      13.95      18.95        0.01     0.00   0.947
  4631                      20.00       0.00       0.00       1.14       5.00      13.95      18.95        0.01     0.00   0.947
  4632                      20.00       0.00       0.00       1.14       5.00      13.95      18.95        0.01     0.00   0.947
  4633                      20.00       0.00       0.00       1.14       5.00      13.95      18.95        0.01     0.00   0.947
  4634                      20.00       0.00       0.00       1.14       5.00      13.95      18.95        0.01     0.00   0.947
  4637                      20.00       0.00       0.00       1.14       5.00      13.95      18.95        0.01     0.00   0.947
  4686                      20.00       0.00       0.00       1.14       5.00      13.95      18.95        0.01     0.00   0.947
  4687                      20.00       0.00       0.00       1.14       5.00      13.95      18.95        0.01     0.00   0.947
  4688                      20.00       0.00       0.00       1.14       5.00      13.95      18.95        0.01     0.00   0.947
  5032                      20.00       0.00       0.00       1.14       5.00      13.95      18.95        0.01     0.00   0.947
  5331                      20.00       0.00       0.00       1.14       5.00      13.95      18.95        0.01     0.00   0.947
  5332                      20.00       0.00       0.00       1.14       5.00      13.95      18.95        0.01     0.00   0.947
  5335                      20.00       0.00       0.00       1.14       5.00      13.95      18.95        0.01     0.00   0.947
  5336                      20.00       0.00       0.00       1.14       5.00      13.95      18.95        0.01     0.00   0.947
  5337                      20.00       0.00       0.00       1.14       5.00      13.95      18.95        0.01     0.00   0.947
  5338                      20.00       0.00       0.00       1.14       5.00      13.95      18.95        0.01     0.00   0.947
  5339                      20.00       0.00       0.00       1.14       5.00      13.95      18.95        0.01     0.00   0.947
  5340                      20.00       0.00       0.00       1.14       5.00      13.95      18.95        0.01     0.00   0.947
  5341                      20.00       0.00       0.00       1.14       5.00      13.95      18.95        0.01     0.00   0.947
  5342                      20.00       0.00       0.00       1.14       5.00      13.95      18.95        0.01     0.00   0.947
  5343                      20.00       0.00       0.00       1.14       5.00      13.95      18.95        0.01     0.00   0.947
  5344                      20.00       0.00       0.00       1.14       5.00      13.95      18.95        0.01     0.00   0.947
  5345                      20.00       0.00       0.00       1.14       5.00      13.95      18.95        0.01     0.00   0.947
  5346                      20.00       0.00       0.00       1.14       5.00      13.95      18.95        0.01     0.00   0.947
  5347                      20.00       0.00       0.00       1.14       5.00      13.95      18.95        0.01     0.00   0.947
  5348                      20.00       0.00       0.00       1.14       5.00      13.95      18.95        0.01     0.00   0.947
  5349                      20.00       0.00       0.00       1.14       5.00      13.95      18.95        0.01     0.00   0.947
  5350                      20.00       0.00       0.00       1.14       5.00      13.95      18.95        0.01     0.00   0.947
  6088                      20.00       0.00       0.00       1.14       5.00      13.95      18.95        0.01     0.00   0.947
  7275                      20.00       0.00       0.00       1.14       5.00      13.95      18.95        0.01     0.00   0.947
  9955                      20.00       0.00       0.00       1.14       5.00      13.95      18.95        0.01     0.00   0.947
  9956                      20.00       0.00       0.00       1.14       5.00      13.95      18.95        0.01     0.00   0.947
  
  
  ****************************
  Subcatchment Washoff Summary
  ****************************
  
  ----------------------------------
                                 COD
  Subcatchment                    kg
  ----------------------------------
  2707                         4.970
  2708                         4.970
  2709                         4.970
  2710                         4.970
  2712                         4.970
  2713                         4.970
  2714                         4.970
  2715                         4.970
  2716                         4.970
  2717                         4.970
  2718                         4.970
  2719                         4.970
  2721                         4.970
  2722                         4.970
  2723                         4.970
  2724                         4.970
  2725                         4.970
  2726                         4.970
  2727                         4.970
  2728                         4.970
  2729                         4.970
  2730                         4.970
  2731                         4.970
  2732                         4.970
  2733                         4.970
  2734                         4.970
  2735                         4.970
  2736                         4.970
  2737                         4.970
  2738                         4.970
  2739                         4.970
  2740                         4.970
  2741                         4.970
  2742                         4.970
  2743                         4.970
  2744                         4.970
  2745                         4.970
  2746                         4.970
  2747                         4.970
  2748                         4.970
  2749                         4.970
  2750                         4.970
  2751                         4.970
  2752                         4.970
  2753                         4.970
  2754                         4.970
  2755                         4.970
  2756                         4.970
  2964                         4.970
  2969                         4.970
  2970                         4.970
  2974                         4.970
  2975                         4.970
  2976                         4.970
  2977                         4.970
  2978                         4.970
  2979                         4.970
  2980                         4.970
  2981                         4.970
  2982                         4.970
  2984                         4.970
  2985                         4.970
  3925                         4.970
  3926                         4.970
  3927                         4.970
  3928                         4.970
  3929                         4.970
  3930                         4.970
  3931                         4.970
  3932                         4.970
  3933                         4.970
  3934                         4.970
  3935                         4.970
  3936                         4.970
  3937                         4.970
  3938                         4.970
  3939                         4.970
  3940                         4.970
  3941                         4.970
  3942                         4.970
  3943                         4.970
  3944                         4.970
  3945                         4.970
  3946                         4.970
  3947                         4.970
  3948                         4.970
  3949                         4.970
  3950                         4.970
  3951                         4.970
  3952                         4.970
  3953                         4.970
  3954                         4.970
  3955                         4.970
  3956                         4.970
  4032                         4.970
  4033                         4.970
  4041                         4.970
  4051                         4.970
  4055                         4.970
  4056                         4.970
  4058                         4.970
  4385                         4.970
  4386                         4.970
  4387                         4.970
  4388                         4.970
  4389                         4.970
  4390                         4.970
  4391                         4.970
  4392                         4.970
  4393                         4.970
  4394                         4.970
  4395                         4.970
  4396                         4.970
  4397                         4.970
  4398                         4.970
  4429                         4.970
  4430                         4.970
  4431                         4.970
  4432                         4.970
  4433                         4.970
  4434                         4.970
  4435                         4.970
  4436                         4.970
  4437                         4.970
  4438                         4.970
  4439                         4.970
  4440                         4.970
  4441                         4.970
  4442                         4.970
  4443                         4.970
  4444                         4.970
  4445                         4.970
  4446                         4.970
  4447                         4.970
  4448                         4.970
  4449                         4.970
  4450                         4.970
  4451                         4.970
  4452                         4.970
  4453                         4.970
  4454                         4.970
  4462                         4.970
  4463                         4.970
  4563                         4.970
  4564                         4.970
  4565                         4.970
  4566                         4.970
  4567                         4.970
  4568                         4.970
  4569                         4.970
  4570                         4.970
  4571                         4.970
  4572                         4.970
  4573                         4.970
  4574                         4.970
  4575                         4.970
  4576                         4.970
  4577                         4.970
  4578                         4.970
  4579                         4.970
  4580                         4.970
  4581                         4.970
  4624                         4.970
  4625                         4.970
  4644                         4.970
  4645                         4.970
  4646                         4.970
  4679                         4.970
  4680                         4.970
  4681                         4.970
  4682                         4.970
  4683                         4.970
  4711                         4.970
  4712                         4.970
  4713                         4.970
  4714                         4.970
  4715                         4.970
  4716                         4.970
  4717                         4.970
  4718                         4.970
  4722                         4.970
  4760                         4.970
  4761                         4.970
  4765                         4.970
  4766                         4.970
  4767                         4.970
  4768                         4.970
  4769                         4.970
  4855                         4.970
  4856                         4.970
  5284                         4.970
  5285                         4.970
  5286                         4.970
  5287                         4.970
  5288                         4.970
  5289                         4.970
  5290                         4.970
  5291                         4.970
  5292                         4.970
  5293                         4.970
  5294                         4.970
  5295                         4.970
  5296                         4.970
  5297                         4.970
  5298                         4.970
  5299                         4.970
  5300                         4.970
  5301                         4.970
  5302                         4.970
  5303                         4.970
  5304                         4.970
  5305                         4.970
  5306                         4.970
  5307                         4.970
  5308                         4.970
  5309                         4.970
  5310                         4.970
  5311                         4.970
  5312                         4.970
  5313                         4.970
  5314                         4.970
  5315                         4.970
  5316                         4.970
  5317                         4.970
  5318                         4.970
  5319                         4.970
  5320                         4.970
  5321                         4.970
  5322                         4.970
  5323                         4.970
  5324                         4.970
  5325                         4.970
  5326                         4.970
  5327                         4.970
  5328                         4.970
  5329                         4.970
  5330                         4.970
  5333                         4.970
  5334                         4.970
  6040                         4.970
  6041                         4.970
  6162                         4.970
  7207                         4.970
  7208                         4.970
  7213                         4.970
  7214                         4.970
  7219                         4.970
  7220                         4.970
  7221                         4.970
  7225                         4.970
  7229                         4.970
  7231                         4.970
  7268                         4.970
  7269                         4.970
  7271                         4.970
  7272                         4.970
  7273                         4.970
  7433                         4.970
  7434                         4.970
  7544                         4.970
  7545                         4.970
  8737                         4.970
  8818                         4.970
  9942                         4.970
  9957                         4.970
  4399                         1.495
  4400                         1.495
  4401                         1.495
  4402                         1.495
  4403                         1.495
  4404                         1.495
  4405                         1.495
  4406                         1.495
  4407                         1.495
  4408                         1.495
  4409                         1.495
  4410                         1.495
  4411                         1.495
  4412                         1.495
  4423                         1.495
  4424                         1.495
  4425                         1.495
  4426                         1.495
  4427                         1.495
  4428                         1.495
  4455                         1.495
  4456                         1.495
  4457                         1.495
  4458                         1.495
  4459                         1.495
  4460                         1.495
  4461                         1.495
  4464                         1.495
  4465                         1.495
  4466                         1.495
  4467                         1.495
  4468                         1.495
  4469                         1.495
  4470                         1.495
  4471                         1.495
  4472                         1.495
  4473                         1.495
  4474                         1.495
  4628                         1.495
  4631                         1.495
  4632                         1.495
  4633                         1.495
  4634                         1.495
  4637                         1.495
  4686                         1.495
  4687                         1.495
  4688                         1.495
  5032                         1.495
  5331                         1.495
  5332                         1.495
  5335                         1.495
  5336                         1.495
  5337                         1.495
  5338                         1.495
  5339                         1.495
  5340                         1.495
  5341                         1.495
  5342                         1.495
  5343                         1.495
  5344                         1.495
  5345                         1.495
  5346                         1.495
  5347                         1.495
  5348                         1.495
  5349                         1.495
  5350                         1.495
  6088                         1.495
  7275                         1.495
  9955                         1.495
  9956                         1.495
  ----------------------------------
  System                    1421.757
  
  
  ******************
  Node Depth Summary
  ******************
  
  ---------------------------------------------------------------------------------
                                 Average  Maximum  Maximum  Time of Max    Reported
                                   Depth    Depth      HGL   Occurrence   Max Depth
  Node                 Type       Meters   Meters   Meters  days hr:min      Meters
  ---------------------------------------------------------------------------------
<<<<<<< HEAD
  Node_02706           JUNCTION     1.76     3.42   100.26     0  04:16        0.00
  Node_02707           JUNCTION     0.46     2.36   101.79     0  04:16        0.00
  Node_02708           JUNCTION     0.45     2.50   102.26     0  04:15        0.00
  Node_02709           JUNCTION     0.54     2.72   102.36     0  04:15        0.00
  Node_02711           JUNCTION     0.19     2.43   102.34     0  04:15        0.00
  Node_02712           JUNCTION     0.20     2.41   102.31     0  04:15        0.00
  Node_02713           JUNCTION     0.24     2.40   102.25     0  04:15        0.00
  Node_02714           JUNCTION     0.04     1.86   102.26     0  04:15        0.00
  Node_02715           JUNCTION     0.23     2.25   102.05     0  04:15        0.00
  Node_02716           JUNCTION     0.26     2.16   101.88     0  04:15        0.00
  Node_02717           JUNCTION     0.30     2.13   101.77     0  04:16        0.00
  Node_02718           JUNCTION     0.30     2.18   101.78     0  04:16        0.00
  Node_02720           JUNCTION     0.31     2.23   101.80     0  04:16        0.00
  Node_02721           JUNCTION     0.60     2.57   101.82     0  04:16        0.00
  Node_02722           JUNCTION     0.13     0.19   101.99     0  04:15        0.00
  Node_02723           JUNCTION     0.53     2.49   101.79     0  04:16        0.00
  Node_02724           JUNCTION     0.37     2.31   101.73     0  04:16        0.00
  Node_02725           JUNCTION     0.39     2.29   101.66     0  04:16        0.00
  Node_02726           JUNCTION     0.45     2.33   101.59     0  04:16        0.00
  Node_02727           JUNCTION     0.53     2.39   101.52     0  04:16        0.00
  Node_02728           JUNCTION     0.14     1.44   101.52     0  04:16        0.00
  Node_02729           JUNCTION     0.56     2.39   101.45     0  04:16        0.00
  Node_02730           JUNCTION     0.56     2.34   101.37     0  04:16        0.00
  Node_02731           JUNCTION     0.98     2.68   101.27     0  04:16        0.00
  Node_02732           JUNCTION     0.54     2.19   101.21     0  04:16        0.00
  Node_02733           JUNCTION     0.52     2.20   101.21     0  04:17        0.00
  Node_02734           JUNCTION     0.79     2.50   101.21     0  04:17        0.00
  Node_02735           JUNCTION     0.69     2.39   101.20     0  04:16        0.00
  Node_02736           JUNCTION     0.86     2.57   101.18     0  04:17        0.00
  Node_02737           JUNCTION     0.83     2.55   101.16     0  04:17        0.00
  Node_02738           JUNCTION     0.64     2.36   101.13     0  04:17        0.00
  Node_02739           JUNCTION     0.48     2.20   101.07     0  04:17        0.00
  Node_02740           JUNCTION     0.48     2.18   101.02     0  04:17        0.00
  Node_02741           JUNCTION     0.26     1.73   101.02     0  04:17        0.00
  Node_02742           JUNCTION     0.47     2.16   100.97     0  04:17        0.00
  Node_02743           JUNCTION     0.86     2.52   100.89     0  04:17        0.00
  Node_02744           JUNCTION     0.20     1.55   100.89     0  04:17        0.00
  Node_02745           JUNCTION     0.57     2.22   100.84     0  04:17        0.00
  Node_02746           JUNCTION     0.45     2.06   100.76     0  04:17        0.00
  Node_02747           JUNCTION     0.05     0.56   100.91     0  04:15        0.00
  Node_02748           JUNCTION     0.03     0.31   100.76     0  04:17        0.00
  Node_02749           JUNCTION     0.43     2.01   100.65     0  04:15        0.00
  Node_02750           JUNCTION     0.41     1.97   100.57     0  04:15        0.00
  Node_02751           JUNCTION     0.37     1.91   100.50     0  04:15        0.00
  Node_02752           JUNCTION     0.35     1.87   100.42     0  04:15        0.00
  Node_02753           JUNCTION     0.35     1.86   100.34     0  04:15        0.00
  Node_02754           JUNCTION     0.28     1.94   100.26     0  04:16        0.00
  Node_02755           JUNCTION     1.21     2.86   100.25     0  04:16        0.00
  Node_02963           JUNCTION     0.20     1.86   101.77     0  04:16        0.00
  Node_02968           JUNCTION     0.08     0.95   101.07     0  04:17        0.00
  Node_02969           JUNCTION     0.09     1.01   100.89     0  04:17        0.00
  Node_02973           JUNCTION     0.75     2.37   100.26     0  04:16        0.00
  Node_02974           JUNCTION     0.60     1.92    99.05     0  04:15        0.00
  Node_02975           JUNCTION     0.60     1.97    99.10     0  04:15        0.00
  Node_02976           JUNCTION     0.66     2.39    99.58     0  04:15        0.00
  Node_02977           JUNCTION     0.71     2.97   100.31     0  04:16        0.00
  Node_02978           JUNCTION     0.64     3.02   100.55     0  04:16        0.00
  Node_02979           JUNCTION     0.52     1.60    98.72     0  04:21        0.00
  Node_02980           JUNCTION     0.42     1.42    98.51     0  04:28        0.00
  Node_02981           JUNCTION     0.37     1.38    98.33     0  04:31        0.00
  Node_02983           JUNCTION     0.07     1.01   101.13     0  04:17        0.00
  Node_02984           JUNCTION     1.04     3.25   100.23     0  04:16        0.00
  Node_03924           JUNCTION     0.06     1.00   101.82     0  04:07        0.00
  Node_03925           JUNCTION     0.29     2.06   102.42     0  04:11        0.00
  Node_03926           JUNCTION     0.04     0.96   102.43     0  04:12        0.00
  Node_03927           JUNCTION     0.27     2.05   102.43     0  04:10        0.00
  Node_03928           JUNCTION     0.28     2.07   102.42     0  04:09        0.00
  Node_03929           JUNCTION     0.28     2.09   102.40     0  04:12        0.00
  Node_03930           JUNCTION     0.30     2.13   102.38     0  04:09        0.00
  Node_03931           JUNCTION     0.29     2.12   102.37     0  04:10        0.00
  Node_03932           JUNCTION     0.32     2.15   102.32     0  04:11        0.00
  Node_03933           JUNCTION     0.31     2.13   102.25     0  04:13        0.00
  Node_03934           JUNCTION     0.09     1.39   102.26     0  04:14        0.00
  Node_03935           JUNCTION     0.35     2.17   102.15     0  04:11        0.00
  Node_03936           JUNCTION     0.36     2.12   102.05     0  04:12        0.00
  Node_03937           JUNCTION     1.22     1.77   101.93     0  04:07        0.00
  Node_03938           JUNCTION     0.55     3.24   102.44     0  04:08        0.00
  Node_03939           JUNCTION     0.60     3.38   102.42     0  04:15        0.00
  Node_03940           JUNCTION     0.64     3.47   102.40     0  04:12        0.00
  Node_03941           JUNCTION     0.69     3.53   102.34     0  04:04        0.00
  Node_03942           JUNCTION     0.71     3.53   102.28     0  04:13        0.00
  Node_03943           JUNCTION     0.76     3.58   102.19     0  03:45        0.00
  Node_03944           JUNCTION     0.82     3.69   102.17     0  03:44        0.00
  Node_03945           JUNCTION     0.87     3.78   102.20     0  04:05        0.00
  Node_03946           JUNCTION     0.93     3.87   102.23     0  04:05        0.00
  Node_03947           JUNCTION     1.13     4.33   102.22     0  04:05        0.00
  Node_03948           JUNCTION     1.07     4.31   102.16     0  04:05        0.00
  Node_03949           JUNCTION     1.17     4.41   102.11     0  04:05        0.00
  Node_03950           JUNCTION     1.03     4.26   102.03     0  04:05        0.00
  Node_03951           JUNCTION     1.00     4.17   101.86     0  04:05        0.00
  Node_03952           JUNCTION     0.99     4.05   101.64     0  04:05        0.00
  Node_03953           JUNCTION     0.89     3.76   101.34     0  04:05        0.00
  Node_03954           JUNCTION     1.76     4.33   100.91     0  04:05        0.00
  Node_03955           JUNCTION     0.70     2.90   100.39     0  04:05        0.00
  Node_04031           JUNCTION     0.13     1.02   102.25     0  04:05        0.00
  Node_04032           JUNCTION     0.85     3.89   102.24     0  04:05        0.00
  Node_04040           JUNCTION     0.25     1.73   102.27     0  04:13        0.00
  Node_04050           JUNCTION     0.28     1.61   102.58     0  04:33        0.00
  Node_04054           JUNCTION     0.06     1.27   102.41     0  04:09        0.00
  Node_04055           JUNCTION     0.18     1.50   102.32     0  04:14        0.00
  Node_04057           JUNCTION     0.10     1.60   101.91     0  04:07        0.00
  Node_04384           JUNCTION     0.89     3.42   101.00     0  04:15        0.00
  Node_04385           JUNCTION     0.61     3.23   101.15     0  04:15        0.00
  Node_04386           JUNCTION     0.61     3.26   101.20     0  04:15        0.00
  Node_04387           JUNCTION     0.61     3.30   101.27     0  04:15        0.00
  Node_04388           JUNCTION     0.61     3.36   101.36     0  04:15        0.00
  Node_04389           JUNCTION     0.15     1.02   101.38     0  04:15        0.00
  Node_04390           JUNCTION     0.61     3.36   101.38     0  04:15        0.00
  Node_04391           JUNCTION     0.61     3.40   101.46     0  04:15        0.00
  Node_04392           JUNCTION     0.73     3.52   101.48     0  04:15        0.00
  Node_04393           JUNCTION     0.61     3.42   101.53     0  04:15        0.00
  Node_04394           JUNCTION     0.16     1.88   101.53     0  04:15        0.00
  Node_04395           JUNCTION     0.61     3.43   101.58     0  04:15        0.00
  Node_04396           JUNCTION     0.60     3.43   101.63     0  04:10        0.00
  Node_04397           JUNCTION     0.08     1.73   101.63     0  04:10        0.00
  Node_04428           JUNCTION     0.62     3.44   101.66     0  04:10        0.00
  Node_04429           JUNCTION     0.61     3.44   101.68     0  04:10        0.00
  Node_04430           JUNCTION     0.61     3.42   101.70     0  04:10        0.00
  Node_04431           JUNCTION     0.48     3.13   101.70     0  04:15        0.00
  Node_04432           JUNCTION     0.42     3.03   101.70     0  04:10        0.00
  Node_04433           JUNCTION     0.31     2.82   101.70     0  04:11        0.00
  Node_04434           JUNCTION     0.55     3.11   101.70     0  04:11        0.00
  Node_04435           JUNCTION     0.43     2.92   101.69     0  04:14        0.00
  Node_04436           JUNCTION     0.84     3.30   101.69     0  04:14        0.00
  Node_04437           JUNCTION     0.99     3.40   101.69     0  04:13        0.00
  Node_04438           JUNCTION     1.30     3.70   101.71     0  04:14        0.00
  Node_04439           JUNCTION     0.37     2.75   101.72     0  04:11        0.00
  Node_04440           JUNCTION     0.37     2.73   101.74     0  04:14        0.00
  Node_04441           JUNCTION     0.22     2.41   101.74     0  04:07        0.00
  Node_04442           JUNCTION     0.46     2.78   101.75     0  04:07        0.00
  Node_04443           JUNCTION     0.34     2.63   101.77     0  04:14        0.00
  Node_04444           JUNCTION     0.35     2.60   101.78     0  04:13        0.00
  Node_04445           JUNCTION     0.30     2.54   101.80     0  04:07        0.00
  Node_04446           JUNCTION     0.30     2.49   101.83     0  04:07        0.00
  Node_04447           JUNCTION     0.27     2.42   101.86     0  04:07        0.00
  Node_04448           JUNCTION     0.30     2.45   101.90     0  04:07        0.00
  Node_04449           JUNCTION     0.31     2.47   101.93     0  04:07        0.00
  Node_04450           JUNCTION     0.47     2.61   101.93     0  04:07        0.00
  Node_04451           JUNCTION     0.31     2.39   101.94     0  04:07        0.00
  Node_04452           JUNCTION     0.15     2.15   101.97     0  04:07        0.00
  Node_04453           JUNCTION     0.09     1.76   101.98     0  04:07        0.00
  Node_04461           JUNCTION     0.29     2.29   101.91     0  04:07        0.00
  Node_04462           JUNCTION     0.29     2.30   101.95     0  04:07        0.00
  Node_04562           JUNCTION     0.16     2.46   102.05     0  04:07        0.00
  Node_04563           JUNCTION     0.36     2.92   102.04     0  04:07        0.00
  Node_04564           JUNCTION     0.22     2.69   102.07     0  04:07        0.00
  Node_04565           JUNCTION     0.23     2.73   102.09     0  04:07        0.00
  Node_04566           JUNCTION     0.34     2.89   102.08     0  04:07        0.00
  Node_04567           JUNCTION     0.28     2.84   102.06     0  04:07        0.00
  Node_04568           JUNCTION     0.27     2.84   102.03     0  04:07        0.00
  Node_04569           JUNCTION     0.37     3.04   102.01     0  04:07        0.00
  Node_04570           JUNCTION     0.18     2.29   102.02     0  04:07        0.00
  Node_04571           JUNCTION     0.36     2.99   101.92     0  04:07        0.00
  Node_04572           JUNCTION     1.73     4.43   101.96     0  04:07        0.00
  Node_04573           JUNCTION     1.40     4.14   101.98     0  04:07        0.00
  Node_04574           JUNCTION     2.20     3.70   102.00     0  04:08        0.00
  Node_04575           JUNCTION     1.85     4.69   102.00     0  04:07        0.00
  Node_04576           JUNCTION     0.45     3.31   101.96     0  04:07        0.00
  Node_04577           JUNCTION     0.46     3.32   101.90     0  04:07        0.00
  Node_04578           JUNCTION     0.48     3.35   101.85     0  04:09        0.00
  Node_04579           JUNCTION     0.51     3.38   101.79     0  04:10        0.00
  Node_04580           JUNCTION     0.14     1.98   101.76     0  04:07        0.00
  Node_04623           JUNCTION     0.10     1.48   101.14     0  04:15        0.00
  Node_04624           JUNCTION     0.17     2.23   101.69     0  04:10        0.00
  Node_04643           JUNCTION     0.14     2.03   101.94     0  04:07        0.00
  Node_04644           JUNCTION     0.13     1.94   101.78     0  04:14        0.00
  Node_04645           JUNCTION     0.31     2.05   101.65     0  04:07        0.00
  Node_04678           JUNCTION     0.12     1.94   101.66     0  04:10        0.00
  Node_04679           JUNCTION     0.06     0.96   101.14     0  04:15        0.00
  Node_04680           JUNCTION     0.67     3.15   100.92     0  04:15        0.00
  Node_04681           JUNCTION     0.63     3.06   100.78     0  04:15        0.00
  Node_04682           JUNCTION     0.06     0.97   101.98     0  04:07        0.00
  Node_04710           JUNCTION     0.35     1.95   101.94     0  04:38        0.00
[...]
  Link_01777                 168.791
  Link_01778                 321.661
  Link_01779                 148.822
  Link_01780                 325.780
  Link_01781                  61.252
  Link_01782                 376.050
  Link_01783                   8.238
  Link_01784                 389.584
  Link_01785                 396.044
  Link_01786                  58.776
  Link_01787                  29.853
  Link_01788                 488.350
  Link_01789                 495.608
  Link_01790                  13.882
  Link_01791                  13.072
  Link_01792                  13.559
  Link_01793                 534.485
  Link_01794                 541.142
  Link_01795                 547.687
  Link_01796                 554.201
  Link_01797                 559.395
  Link_01798                 971.570
  Link_01799                 969.390
  Link_01800                 974.885
  Link_01801                 582.132
  Link_01802                 935.711
  Link_01803                 964.151
  Link_01804                 833.138
  Link_01805                 827.055
  Link_01806                 820.820
  Link_01807                 814.209
  Link_01808                  12.107
  Link_01809                 796.584
  Link_01810                 784.859
  Link_01811                   4.992
  Link_01812                  50.277
  Link_01813                  40.650
  Link_01814                 756.693
  Link_01815                 750.001
  Link_01816                 736.546
  Link_01817                   6.690
  Link_01818                 707.365
  Link_01819                 690.643
  Link_01820                  10.221
  Link_01821                  22.996
  Link_01822                   5.028
  Link_01823                 149.416
  Link_01824                 147.519
>>>>>>> b040755ab93617f94f1ab7a7036927f36e763e5a
>>>>>>> ebd46bdc835ac17077bb70c3b6f6db3a4ee81ecd
  Link_01825                  43.744
  Link_01826                  45.379
  Link_01827                   1.493
  Link_01828                  48.554
  Link_01829                   5.018
  Link_01830                  55.319
  Link_01831                   1.493
  Link_01832                  58.513
  Link_01833                  60.161
  Link_01834                  63.464
  Link_01835                   1.492
  Link_01836                  33.630
  Link_01837                  19.362
  Link_01838                  23.054
  Link_01839                  31.898
<<<<<<< HEAD
  Link_01840                  30.361
=======
<<<<<<< HEAD
  Link_01840                  30.360
=======
  Link_01840                  30.361
>>>>>>> b040755ab93617f94f1ab7a7036927f36e763e5a
>>>>>>> ebd46bdc835ac17077bb70c3b6f6db3a4ee81ecd
  Link_01841                  28.829
  Link_01842                  24.029
  Link_01843                  20.891
  Link_01844                  19.353
<<<<<<< HEAD
  Link_02074                   8.577
  Link_02075                 120.520
  Link_02076                 135.859
  Link_02077                  12.976
  Link_02078                 154.512
  Link_02079                  10.311
  Link_02080                 170.349
  Link_02081                 175.602
  Link_02082                 180.904
  Link_02083                  10.445
  Link_02084                   8.556
  Link_02085                 438.801
  Link_02086                 426.825
  Link_02087                 421.920
  Link_02088                 416.714
  Link_02089                 411.899
  Link_02090                 416.512
  Link_02091                 410.848
  Link_02092                 405.061
  Link_02093                   8.464
  Link_02094                 384.348
  Link_02095                 378.607
  Link_02096                 352.698
  Link_02097                  15.590
  Link_02098                  25.984
  Link_02099                 347.403
  Link_02100                 342.289
  Link_02101                  19.190
  Link_02102                 327.350
  Link_02103                 308.760
  Link_02104                  18.192
  Link_02105                 246.376
  Link_02106                  12.554
  Link_02107                   5.200
  Link_02108                 235.928
  Link_02109                 231.016
  Link_02110                 216.630
  Link_02111                 144.108
  Link_02112                  13.859
=======
<<<<<<< HEAD
  Link_02074                   8.546
  Link_02075                 119.667
  Link_02076                 134.695
  Link_02077                  12.990
  Link_02078                 153.308
  Link_02079                  10.301
  Link_02080                 169.096
  Link_02081                 174.352
  Link_02082                 179.703
  Link_02083                  10.444
  Link_02084                   8.564
  Link_02085                 454.991
  Link_02086                 444.871
  Link_02087                 440.837
  Link_02088                 435.894
  Link_02089                 431.001
  Link_02090                 432.962
  Link_02091                 426.938
  Link_02092                 421.290
  Link_02093                   8.462
  Link_02094                 400.477
  Link_02095                 394.807
  Link_02096                 368.725
  Link_02097                  15.572
  Link_02098                  25.668
  Link_02099                 363.308
  Link_02100                 358.046
  Link_02101                  18.828
  Link_02102                 342.388
  Link_02103                 323.411
  Link_02104                  18.165
  Link_02105                 259.251
  Link_02106                  12.564
  Link_02107                   5.149
  Link_02108                 250.632
  Link_02109                 245.194
  Link_02110                 216.628
  Link_02111                 144.108
  Link_02112                  13.849
>>>>>>> ebd46bdc835ac17077bb70c3b6f6db3a4ee81ecd
  Link_02113                 107.079
  Link_02114                  27.371
  Link_02115                  25.738
  Link_02116                  24.176
  Link_02117                  22.661
  Link_02118                  21.121
<<<<<<< HEAD
=======
=======
  Link_02074                   8.532
  Link_02075                 125.191
  Link_02076                 140.625
  Link_02077                  13.032
  Link_02078                 159.276
  Link_02079                  10.290
  Link_02080                 175.108
  Link_02081                 180.346
  Link_02082                 185.631
  Link_02083                  10.400
  Link_02084                   8.542
  Link_02085                 488.749
  Link_02086                 478.208
  Link_02087                 474.162
  Link_02088                 469.243
  Link_02089                 464.574
  Link_02090                 461.267
  Link_02091                 456.890
  Link_02092                 452.511
  Link_02093                   8.456
  Link_02094                 437.090
  Link_02095                 433.115
  Link_02096                 405.882
  Link_02097                  15.560
  Link_02098                  23.254
  Link_02099                 400.878
  Link_02100                 395.091
  Link_02101                  17.402
  Link_02102                 375.381
  Link_02103                 355.101
  Link_02104                  18.007
  Link_02105                 285.256
  Link_02106                  12.541
  Link_02107                   5.095
  Link_02108                 270.124
  Link_02109                 262.908
  Link_02110                 216.634
  Link_02111                 144.107
  Link_02112                  13.819
  Link_02113                 107.079
  Link_02114                  27.371
  Link_02115                  25.737
  Link_02116                  24.176
  Link_02117                  22.660
  Link_02118                  21.120
>>>>>>> b040755ab93617f94f1ab7a7036927f36e763e5a
>>>>>>> ebd46bdc835ac17077bb70c3b6f6db3a4ee81ecd
  Link_02123                   5.037
  Link_02124                   6.560
  Link_02125                   8.088
  Link_02126                   9.585
<<<<<<< HEAD
  Link_02127                  19.582
  Link_02128                  18.040
  Link_02129                  16.531
=======
  Link_02127                  19.581
<<<<<<< HEAD
  Link_02128                  18.040
  Link_02129                  16.531
=======
  Link_02128                  18.039
  Link_02129                  16.530
>>>>>>> b040755ab93617f94f1ab7a7036927f36e763e5a
>>>>>>> ebd46bdc835ac17077bb70c3b6f6db3a4ee81ecd
  Link_02130                  15.019
  Link_02131                  13.472
  Link_02132                  11.917
  Link_02133                  10.365
  Link_02134                 108.746
<<<<<<< HEAD
=======
<<<<<<< HEAD
>>>>>>> ebd46bdc835ac17077bb70c3b6f6db3a4ee81ecd
  Link_02135                 110.447
  Link_02136                 117.142
  Link_02137                   5.035
  Link_02138                 132.014
  Link_02139                 130.359
  Link_02140                 128.640
  Link_02141                 127.029
  Link_02142                 125.355
  Link_02143                 118.752
<<<<<<< HEAD
  Link_02383                   5.214
  Link_02384                   8.029
  Link_02385                  13.165
  Link_02386                  22.854
  Link_02387                  40.750
  Link_02388                  45.510
  Link_02389                  21.765
  Link_02390                  50.463
  Link_02391                  77.123
  Link_02392                  29.207
  Link_02393                 110.291
  Link_05459                  65.344
  Link_05460                 105.383
  Link_05461                 108.795
  Link_05462                 361.284
  Link_05463                 526.832
  Link_05464                  24.505
  Link_05496                1519.947
  Link_05662                  32.286
  Link_05663                   6.881
  Link_05664                  35.926
  Link_05665                 362.390
  Link_05677                 265.570
  Link_05678                  15.790
  Link_05720                 881.333
  Link_05721                 724.664
  Link_05722                  13.859
  Link_05723                  78.023
  Link_05725                  11.156
  Link_05726                 444.002
  Link_05727                   6.780
  Link_05728                 390.664
  Link_05729                 332.240
  Link_05730                 214.852
  Link_05731                 145.644
  Link_05732                 142.524
  Link_05742                  23.396
  Link_05743                 102.898
  Link_05744                 186.563
  Link_05752                  49.709
  Link_05753                   3.270
  Link_05754                  22.450
  Link_05791                   5.018
  Link_05812                 217.478
  Link_05813                 138.991
  Link_05814                 104.858
  Link_05815                 103.162
  Link_05816                  14.687
  Link_05817                  21.347
  Link_05818                  10.352
  Link_05983                  22.418
  Link_05984                  17.413
  Link_06039                   1.486
  Link_07220                 104.589
  Link_07221                 109.616
  Link_07222                 118.787
  Link_07230                 124.033
  Link_07231                 129.115
  Link_07233                 232.497
  Link_07234                 237.670
  Link_07235                  98.563
  Link_07270                  31.155
  Link_07271                  46.875
  Link_07274                  15.047
  Link_07277                  60.163
  Link_07278                  76.613
  Link_07295                  72.920
  Link_07296                  80.524
  Link_07297                  99.557
  Link_07303                   8.882
  Link_07306                  19.255
  Link_07321                  10.370
  Link_07464                  19.248
  Link_07578                  22.969
  Link_07579                 301.825
  Link_07580                 271.772
  Link_07687                  17.597
  Link_07865                  10.344
  Link_08891                  10.442
  Link_08912                  31.814
  Link1_to_ChengXi          1591.689
  Link2_to_ChengXi           372.215
  Link3_to_ChengXi           243.578
  Link_to_LaoDongLu          218.284
  Pump_ChengXi1             1213.234
  Pump_ChengXi2              446.363
  Pump_ChengXi3              331.012
  Pump_ChengXi4              316.606
  Pump_LaoDongLu1            143.497
  Pump_LaoDongLu2             54.758
  Pump_LaoDongLu3             28.974
  outfallpump               1167.740
  

  Analysis begun on:  Mon Aug 16 03:45:15 2021
  Analysis ended on:  Mon Aug 16 03:45:17 2021
=======
  Link_02383                   5.092
  Link_02384                   7.915
  Link_02385                  13.155
  Link_02386                  22.848
  Link_02387                  40.639
  Link_02388                  45.593
  Link_02389                  21.755
  Link_02390                  50.637
  Link_02391                  76.983
  Link_02392                  28.960
  Link_02393                 110.025
  Link_05459                  62.188
  Link_05460                 108.138
  Link_05461                 111.325
  Link_05462                 360.041
  Link_05463                 526.440
  Link_05464                  24.230
  Link_05496                1523.015
  Link_05662                  32.213
  Link_05663                   6.686
  Link_05664                  36.018
  Link_05665                 362.318
  Link_05677                 265.480
  Link_05678                  15.782
  Link_05720                 890.393
  Link_05721                 737.764
  Link_05722                  13.840
  Link_05723                  78.023
  Link_05725                  11.156
  Link_05726                 459.775
  Link_05727                   6.767
  Link_05728                 407.195
  Link_05729                 347.565
  Link_05730                 214.852
  Link_05731                 145.644
  Link_05732                 142.524
  Link_05742                  23.288
  Link_05743                 102.389
  Link_05744                 185.698
  Link_05752                  50.066
  Link_05753                   3.270
  Link_05754                  22.450
  Link_05791                   5.018
  Link_05812                 217.885
  Link_05813                 139.285
  Link_05814                 105.064
  Link_05815                 103.309
  Link_05816                  14.687
  Link_05817                  21.347
  Link_05818                  10.352
  Link_05983                  22.420
  Link_05984                  17.382
  Link_06039                   1.486
  Link_07220                  79.739
  Link_07221                  84.740
  Link_07222                  94.446
  Link_07230                  99.681
  Link_07231                 104.831
  Link_07233                 208.334
  Link_07234                 213.483
  Link_07235                  98.653
  Link_07270                  24.577
  Link_07271                  32.124
  Link_07274                  14.386
  Link_07277                  39.527
  Link_07278                  44.715
  Link_07295                  50.137
  Link_07296                  55.689
  Link_07297                  74.654
  Link_07303                   8.604
  Link_07306                  18.328
  Link_07321                  10.370
  Link_07464                  19.282
  Link_07578                  22.923
  Link_07579                 316.231
  Link_07580                 286.130
  Link_07687                  17.600
  Link_07865                  10.344
  Link_08891                  10.408
  Link_08912                  31.715
  Link1_to_ChengXi          1592.611
  Link2_to_ChengXi           372.075
  Link3_to_ChengXi           219.386
  Link_to_LaoDongLu          218.283
  Pump_ChengXi1              934.770
  Pump_ChengXi2              611.798
  Pump_ChengXi3              395.612
  Pump_ChengXi4              342.489
  Pump_LaoDongLu1            157.099
  Pump_LaoDongLu2             42.017
  Pump_LaoDongLu3             42.017
  outfallpump               1621.967
  

  Analysis begun on:  Mon Aug 16 03:27:27 2021
  Analysis ended on:  Mon Aug 16 03:27:29 2021
=======
  Link_02135                 110.446
  Link_02136                 117.142
  Link_02137                   5.035
  Link_02138                 132.014
  Link_02139                 130.358
  Link_02140                 128.639
  Link_02141                 127.029
  Link_02142                 125.355
  Link_02143                 118.751
  Link_02383                   5.065
  Link_02384                   7.932
  Link_02385                  12.982
  Link_02386                  22.776
  Link_02387                  40.371
  Link_02388                  45.414
  Link_02389                  21.829
  Link_02390                  50.641
  Link_02391                  77.524
  Link_02392                  28.924
  Link_02393                 110.645
  Link_05459                  59.273
  Link_05460                 105.218
  Link_05461                 107.930
  Link_05462                 362.336
  Link_05463                 527.916
  Link_05464                  23.521
  Link_05496                1564.586
  Link_05662                  32.221
  Link_05663                   6.687
  Link_05664                  35.872
  Link_05665                 362.590
  Link_05677                 265.804
  Link_05678                  15.791
  Link_05720                 929.197
  Link_05721                 776.987
  Link_05722                  13.800
  Link_05723                  78.023
  Link_05725                  11.156
  Link_05726                 493.466
  Link_05727                   6.747
  Link_05728                 441.311
  Link_05729                 381.418
  Link_05730                 214.856
  Link_05731                 145.648
  Link_05732                 142.523
  Link_05742                  23.227
  Link_05743                 105.322
  Link_05744                 191.266
  Link_05752                  41.349
  Link_05753                   3.270
  Link_05754                  22.450
  Link_05791                   5.018
  Link_05812                 217.679
  Link_05813                 139.183
  Link_05814                 104.967
  Link_05815                 103.257
  Link_05816                  14.687
  Link_05817                  21.347
  Link_05818                  10.352
  Link_05983                  22.452
  Link_05984                  17.393
  Link_06039                   1.486
  Link_07220                  83.182
  Link_07221                  88.174
  Link_07222                  97.646
  Link_07230                 102.881
  Link_07231                 108.015
  Link_07233                 211.430
  Link_07234                 216.584
  Link_07235                  98.576
  Link_07270                  25.907
  Link_07271                  34.987
  Link_07274                  14.177
  Link_07277                  41.238
  Link_07278                  49.149
  Link_07295                  53.183
  Link_07296                  59.035
  Link_07297                  78.077
  Link_07303                   8.589
  Link_07306                  18.498
  Link_07321                  10.370
  Link_07464                  19.272
  Link_07578                  22.991
  Link_07579                 346.259
  Link_07580                 315.082
  Link_07687                  17.594
  Link_07865                  10.344
  Link_08891                  10.394
  Link_08912                  31.727
  Link1_to_ChengXi          1635.010
  Link2_to_ChengXi           372.392
  Link3_to_ChengXi           222.495
  Link_to_LaoDongLu          218.288
  Pump_ChengXi1             1104.027
  Pump_ChengXi2              444.014
  Pump_ChengXi3              382.674
  Pump_ChengXi4              373.694
  Pump_LaoDongLu1            174.492
  Pump_LaoDongLu2             59.301
  Pump_LaoDongLu3             24.839
  outfallpump               1268.262
  

  Analysis begun on:  Tue Aug 17 21:45:03 2021
  Analysis ended on:  Tue Aug 17 21:45:05 2021
>>>>>>> b040755ab93617f94f1ab7a7036927f36e763e5a
>>>>>>> ebd46bdc835ac17077bb70c3b6f6db3a4ee81ecd
  Total elapsed time: 00:00:02