
  EPA STORM WATER MANAGEMENT MODEL - VERSION 5.1 (Build 5.3.0.dev0)
  --------------------------------------------------------------

  WARNING 04: minimum elevation drop used for Conduit Link_01776
  WARNING 04: minimum elevation drop used for Conduit Link_01779
  WARNING 04: minimum elevation drop used for Conduit Link_07234
  WARNING 02: maximum depth increased for Node Node_06087
  
  *********************************************************
  NOTE: The summary statistics displayed in this report are
  based on results found at every computational time step,  
  not just on results from each reporting time step.
  *********************************************************
  
  ****************
  Analysis Options
  ****************
  Flow Units ............... CMS
  Process Models:
    Rainfall/Runoff ........ YES
    RDII ................... NO
    Snowmelt ............... NO
    Groundwater ............ NO
    Flow Routing ........... YES
    Ponding Allowed ........ YES
    Water Quality .......... YES
  Infiltration Method ...... HORTON
  Flow Routing Method ...... DYNWAVE
  Surcharge Method ......... EXTRAN
  Starting Date ............ 01/02/2011 00:00:00
  Ending Date .............. 01/02/2011 06:00:00
  Antecedent Dry Days ...... 0.0
  Report Time Step ......... 00:15:00
  Wet Time Step ............ 00:05:00
  Dry Time Step ............ 01:00:00
  Routing Time Step ........ 60.00 sec
  Variable Time Step ....... YES
  Maximum Trials ........... 8
  Number of Threads ........ 1
  Head Tolerance ........... 0.001500 m
  
  
  **************************        Volume         Depth
  Runoff Quantity Continuity     hectare-m            mm
  **************************     ---------       -------
  Total Precipitation ......         0.822        28.750
  Evaporation Loss .........         0.000         0.000
  Infiltration Loss ........         0.035         1.218
  Surface Runoff ...........         0.791        27.654
  Final Storage ............         0.000         0.009
  Continuity Error (%) .....        -0.456
  
  
  **************************           COD
  Runoff Quality Continuity             kg
  **************************    ----------
  Initial Buildup ..........         0.000
  Surface Buildup ..........         0.000
  Wet Deposition ...........      2162.530
  Sweeping Removal .........         0.000
  Infiltration Loss ........        91.637
  BMP Removal ..............         0.000
  Surface Runoff ...........      2080.055
  Remaining Buildup ........         0.706
  Continuity Error (%) .....        -0.456
  
  
  **************************        Volume        Volume
  Flow Routing Continuity        hectare-m      10^6 ltr
  **************************     ---------     ---------
  Dry Weather Inflow .......         0.153         1.529
  Wet Weather Inflow .......         0.791         7.909
  Groundwater Inflow .......         0.000         0.000
  RDII Inflow ..............         0.000         0.000
  External Inflow ..........         0.000         0.000
<<<<<<< HEAD
  External Outflow .........         0.743         7.427
  Flooding Loss ............         0.513         5.126
  Evaporation Loss .........         0.000         0.000
  Exfiltration Loss ........         0.000         0.000
  Initial Stored Volume ....         0.077         0.773
  Final Stored Volume ......         0.142         1.418
  Continuity Error (%) .....       -36.826
=======
<<<<<<< HEAD
  External Outflow .........         0.763         7.631
  Flooding Loss ............         0.494         4.942
  Evaporation Loss .........         0.000         0.000
  Exfiltration Loss ........         0.000         0.000
  Initial Stored Volume ....         0.077         0.773
  Final Stored Volume ......         0.131         1.313
  Continuity Error (%) .....       -35.989
=======
  External Outflow .........         0.759         7.591
  Flooding Loss ............         0.482         4.818
  Evaporation Loss .........         0.000         0.000
  Exfiltration Loss ........         0.000         0.000
  Initial Stored Volume ....         0.077         0.773
  Final Stored Volume ......         0.139         1.390
  Continuity Error (%) .....       -35.143
>>>>>>> b040755ab93617f94f1ab7a7036927f36e763e5a
>>>>>>> ebd46bdc835ac17077bb70c3b6f6db3a4ee81ecd
  
  
  **************************           COD
  Quality Routing Continuity            kg
  **************************    ----------
  Dry Weather Inflow .......       845.606
  Wet Weather Inflow .......      2080.043
  Groundwater Inflow .......         0.000
  RDII Inflow ..............         0.000
  External Inflow ..........         0.000
<<<<<<< HEAD
  External Outflow .........      1568.329
  Flooding Loss ............      1231.253
  Exfiltration Loss ........         0.000
  Mass Reacted .............         0.000
  Initial Stored Mass ......       427.257
  Final Stored Mass ........       297.520
  Continuity Error (%) .....         7.629
=======
<<<<<<< HEAD
  External Outflow .........      2030.622
  Flooding Loss ............      1194.667
  Exfiltration Loss ........         0.000
  Mass Reacted .............         0.000
  Initial Stored Mass ......       427.257
  Final Stored Mass ........       272.158
  Continuity Error (%) .....        -4.311
=======
  External Outflow .........      1716.294
  Flooding Loss ............      1199.191
  Exfiltration Loss ........         0.000
  Mass Reacted .............         0.000
  Initial Stored Mass ......       427.257
  Final Stored Mass ........       279.854
  Continuity Error (%) .....         4.699
>>>>>>> b040755ab93617f94f1ab7a7036927f36e763e5a
>>>>>>> ebd46bdc835ac17077bb70c3b6f6db3a4ee81ecd
  
  
  *************************
  Highest Continuity Errors
  *************************
<<<<<<< HEAD
  Node Node_04713 (-83.83%)
  Node Node_04715 (-28.59%)
  Node Node_07272 (-26.56%)
  Node Node_04714 (-21.91%)
  Node Node_04711 (-17.82%)
=======
<<<<<<< HEAD
  Node Node_04713 (-82.97%)
  Node Node_04714 (-27.52%)
  Node Node_04711 (-22.82%)
  Node Node_04715 (-16.60%)
  Node Node_04712 (9.91%)
=======
  Node Node_04713 (-81.68%)
  Node Node_07272 (-29.05%)
  Node Node_04715 (-27.22%)
  Node Node_04714 (-20.58%)
  Node Node_04711 (-18.70%)
>>>>>>> b040755ab93617f94f1ab7a7036927f36e763e5a
>>>>>>> ebd46bdc835ac17077bb70c3b6f6db3a4ee81ecd
  
  
  ***************************
  Time-Step Critical Elements
  ***************************
<<<<<<< HEAD
  Link Link_01778 (40.37%)
  Link Link_02129 (27.41%)
  Link Link_01558 (22.59%)
  Link Link_05464 (1.78%)
  Link Link_01780 (1.53%)
=======
<<<<<<< HEAD
  Link Link_01778 (40.16%)
  Link Link_02129 (33.22%)
  Link Link_01558 (17.80%)
  Link Link_01780 (1.64%)
  Link Link_05464 (1.46%)
=======
  Link Link_01778 (40.44%)
  Link Link_02129 (33.43%)
  Link Link_01558 (16.39%)
  Link Link_05464 (1.78%)
  Link Link_01780 (1.46%)
>>>>>>> b040755ab93617f94f1ab7a7036927f36e763e5a
>>>>>>> ebd46bdc835ac17077bb70c3b6f6db3a4ee81ecd
  
  
  ********************************
  Highest Flow Instability Indexes
  ********************************
<<<<<<< HEAD
  Link Link_01787 (76)
  Link Link_01558 (75)
  Link Link_01778 (64)
  Link Link_01800 (61)
  Link Link_01780 (60)
=======
<<<<<<< HEAD
  Link Link_01787 (75)
  Link Link_01558 (73)
  Link Link_01800 (63)
  Link Link_01778 (62)
  Link Link_01780 (60)
=======
  Link Link_01787 (74)
  Link Link_01558 (73)
  Link Link_01778 (63)
  Link Link_01800 (60)
  Link Link_01780 (57)
>>>>>>> b040755ab93617f94f1ab7a7036927f36e763e5a
>>>>>>> ebd46bdc835ac17077bb70c3b6f6db3a4ee81ecd
  
  
  *************************
  Routing Time Step Summary
  *************************
  Minimum Time Step           :     5.00 sec
  Average Time Step           :     5.00 sec
  Maximum Time Step           :     5.00 sec
  Percent in Steady State     :     0.00
<<<<<<< HEAD
  Average Iterations per Step :     6.40
  Percent Not Converging      :    67.34
=======
<<<<<<< HEAD
  Average Iterations per Step :     6.43
  Percent Not Converging      :    67.64
=======
  Average Iterations per Step :     6.40
  Percent Not Converging      :    67.29
>>>>>>> b040755ab93617f94f1ab7a7036927f36e763e5a
>>>>>>> ebd46bdc835ac17077bb70c3b6f6db3a4ee81ecd
  
  
  ***************************
  Subcatchment Runoff Summary
  ***************************
  
  ------------------------------------------------------------------------------------------------------------------------------
                            Total      Total      Total      Total     Imperv       Perv      Total       Total     Peak  Runoff
                           Precip      Runon       Evap      Infil     Runoff     Runoff     Runoff      Runoff   Runoff   Coeff
  Subcatchment                 mm         mm         mm         mm         mm         mm         mm    10^6 ltr      CMS
  ------------------------------------------------------------------------------------------------------------------------------
  2707                      28.75       0.00       0.00       1.22       7.19      20.46      27.65        0.03     0.01   0.962
  2708                      28.75       0.00       0.00       1.22       7.19      20.46      27.65        0.03     0.01   0.962
  2709                      28.75       0.00       0.00       1.22       7.19      20.46      27.65        0.03     0.01   0.962
  2710                      28.75       0.00       0.00       1.22       7.19      20.46      27.65        0.03     0.01   0.962
  2712                      28.75       0.00       0.00       1.22       7.19      20.46      27.65        0.03     0.01   0.962
  2713                      28.75       0.00       0.00       1.22       7.19      20.46      27.65        0.03     0.01   0.962
  2714                      28.75       0.00       0.00       1.22       7.19      20.46      27.65        0.03     0.01   0.962
  2715                      28.75       0.00       0.00       1.22       7.19      20.46      27.65        0.03     0.01   0.962
  2716                      28.75       0.00       0.00       1.22       7.19      20.46      27.65        0.03     0.01   0.962
  2717                      28.75       0.00       0.00       1.22       7.19      20.46      27.65        0.03     0.01   0.962
  2718                      28.75       0.00       0.00       1.22       7.19      20.46      27.65        0.03     0.01   0.962
  2719                      28.75       0.00       0.00       1.22       7.19      20.46      27.65        0.03     0.01   0.962
  2721                      28.75       0.00       0.00       1.22       7.19      20.46      27.65        0.03     0.01   0.962
  2722                      28.75       0.00       0.00       1.22       7.19      20.46      27.65        0.03     0.01   0.962
  2723                      28.75       0.00       0.00       1.22       7.19      20.46      27.65        0.03     0.01   0.962
  2724                      28.75       0.00       0.00       1.22       7.19      20.46      27.65        0.03     0.01   0.962
  2725                      28.75       0.00       0.00       1.22       7.19      20.46      27.65        0.03     0.01   0.962
  2726                      28.75       0.00       0.00       1.22       7.19      20.46      27.65        0.03     0.01   0.962
  2727                      28.75       0.00       0.00       1.22       7.19      20.46      27.65        0.03     0.01   0.962
  2728                      28.75       0.00       0.00       1.22       7.19      20.46      27.65        0.03     0.01   0.962
  2729                      28.75       0.00       0.00       1.22       7.19      20.46      27.65        0.03     0.01   0.962
  2730                      28.75       0.00       0.00       1.22       7.19      20.46      27.65        0.03     0.01   0.962
  2731                      28.75       0.00       0.00       1.22       7.19      20.46      27.65        0.03     0.01   0.962
  2732                      28.75       0.00       0.00       1.22       7.19      20.46      27.65        0.03     0.01   0.962
  2733                      28.75       0.00       0.00       1.22       7.19      20.46      27.65        0.03     0.01   0.962
  2734                      28.75       0.00       0.00       1.22       7.19      20.46      27.65        0.03     0.01   0.962
  2735                      28.75       0.00       0.00       1.22       7.19      20.46      27.65        0.03     0.01   0.962
  2736                      28.75       0.00       0.00       1.22       7.19      20.46      27.65        0.03     0.01   0.962
  2737                      28.75       0.00       0.00       1.22       7.19      20.46      27.65        0.03     0.01   0.962
  2738                      28.75       0.00       0.00       1.22       7.19      20.46      27.65        0.03     0.01   0.962
  2739                      28.75       0.00       0.00       1.22       7.19      20.46      27.65        0.03     0.01   0.962
  2740                      28.75       0.00       0.00       1.22       7.19      20.46      27.65        0.03     0.01   0.962
  2741                      28.75       0.00       0.00       1.22       7.19      20.46      27.65        0.03     0.01   0.962
  2742                      28.75       0.00       0.00       1.22       7.19      20.46      27.65        0.03     0.01   0.962
  2743                      28.75       0.00       0.00       1.22       7.19      20.46      27.65        0.03     0.01   0.962
  2744                      28.75       0.00       0.00       1.22       7.19      20.46      27.65        0.03     0.01   0.962
  2745                      28.75       0.00       0.00       1.22       7.19      20.46      27.65        0.03     0.01   0.962
  2746                      28.75       0.00       0.00       1.22       7.19      20.46      27.65        0.03     0.01   0.962
  2747                      28.75       0.00       0.00       1.22       7.19      20.46      27.65        0.03     0.01   0.962
  2748                      28.75       0.00       0.00       1.22       7.19      20.46      27.65        0.03     0.01   0.962
  2749                      28.75       0.00       0.00       1.22       7.19      20.46      27.65        0.03     0.01   0.962
  2750                      28.75       0.00       0.00       1.22       7.19      20.46      27.65        0.03     0.01   0.962
  2751                      28.75       0.00       0.00       1.22       7.19      20.46      27.65        0.03     0.01   0.962
  2752                      28.75       0.00       0.00       1.22       7.19      20.46      27.65        0.03     0.01   0.962
  2753                      28.75       0.00       0.00       1.22       7.19      20.46      27.65        0.03     0.01   0.962
  2754                      28.75       0.00       0.00       1.22       7.19      20.46      27.65        0.03     0.01   0.962
  2755                      28.75       0.00       0.00       1.22       7.19      20.46      27.65        0.03     0.01   0.962
  2756                      28.75       0.00       0.00       1.22       7.19      20.46      27.65        0.03     0.01   0.962
  2964                      28.75       0.00       0.00       1.22       7.19      20.46      27.65        0.03     0.01   0.962
  2969                      28.75       0.00       0.00       1.22       7.19      20.46      27.65        0.03     0.01   0.962
  2970                      28.75       0.00       0.00       1.22       7.19      20.46      27.65        0.03     0.01   0.962
  2974                      28.75       0.00       0.00       1.22       7.19      20.46      27.65        0.03     0.01   0.962
  2975                      28.75       0.00       0.00       1.22       7.19      20.46      27.65        0.03     0.01   0.962
  2976                      28.75       0.00       0.00       1.22       7.19      20.46      27.65        0.03     0.01   0.962
  2977                      28.75       0.00       0.00       1.22       7.19      20.46      27.65        0.03     0.01   0.962
  2978                      28.75       0.00       0.00       1.22       7.19      20.46      27.65        0.03     0.01   0.962
  2979                      28.75       0.00       0.00       1.22       7.19      20.46      27.65        0.03     0.01   0.962
  2980                      28.75       0.00       0.00       1.22       7.19      20.46      27.65        0.03     0.01   0.962
  2981                      28.75       0.00       0.00       1.22       7.19      20.46      27.65        0.03     0.01   0.962
  2982                      28.75       0.00       0.00       1.22       7.19      20.46      27.65        0.03     0.01   0.962
  2984                      28.75       0.00       0.00       1.22       7.19      20.46      27.65        0.03     0.01   0.962
  2985                      28.75       0.00       0.00       1.22       7.19      20.46      27.65        0.03     0.01   0.962
  3925                      28.75       0.00       0.00       1.22       7.19      20.46      27.65        0.03     0.01   0.962
  3926                      28.75       0.00       0.00       1.22       7.19      20.46      27.65        0.03     0.01   0.962
  3927                      28.75       0.00       0.00       1.22       7.19      20.46      27.65        0.03     0.01   0.962
  3928                      28.75       0.00       0.00       1.22       7.19      20.46      27.65        0.03     0.01   0.962
  3929                      28.75       0.00       0.00       1.22       7.19      20.46      27.65        0.03     0.01   0.962
  3930                      28.75       0.00       0.00       1.22       7.19      20.46      27.65        0.03     0.01   0.962
  3931                      28.75       0.00       0.00       1.22       7.19      20.46      27.65        0.03     0.01   0.962
  3932                      28.75       0.00       0.00       1.22       7.19      20.46      27.65        0.03     0.01   0.962
  3933                      28.75       0.00       0.00       1.22       7.19      20.46      27.65        0.03     0.01   0.962
  3934                      28.75       0.00       0.00       1.22       7.19      20.46      27.65        0.03     0.01   0.962
  3935                      28.75       0.00       0.00       1.22       7.19      20.46      27.65        0.03     0.01   0.962
  3936                      28.75       0.00       0.00       1.22       7.19      20.46      27.65        0.03     0.01   0.962
  3937                      28.75       0.00       0.00       1.22       7.19      20.46      27.65        0.03     0.01   0.962
  3938                      28.75       0.00       0.00       1.22       7.19      20.46      27.65        0.03     0.01   0.962
  3939                      28.75       0.00       0.00       1.22       7.19      20.46      27.65        0.03     0.01   0.962
  3940                      28.75       0.00       0.00       1.22       7.19      20.46      27.65        0.03     0.01   0.962
  3941                      28.75       0.00       0.00       1.22       7.19      20.46      27.65        0.03     0.01   0.962
  3942                      28.75       0.00       0.00       1.22       7.19      20.46      27.65        0.03     0.01   0.962
  3943                      28.75       0.00       0.00       1.22       7.19      20.46      27.65        0.03     0.01   0.962
  3944                      28.75       0.00       0.00       1.22       7.19      20.46      27.65        0.03     0.01   0.962
  3945                      28.75       0.00       0.00       1.22       7.19      20.46      27.65        0.03     0.01   0.962
  3946                      28.75       0.00       0.00       1.22       7.19      20.46      27.65        0.03     0.01   0.962
  3947                      28.75       0.00       0.00       1.22       7.19      20.46      27.65        0.03     0.01   0.962
  3948                      28.75       0.00       0.00       1.22       7.19      20.46      27.65        0.03     0.01   0.962
  3949                      28.75       0.00       0.00       1.22       7.19      20.46      27.65        0.03     0.01   0.962
  3950                      28.75       0.00       0.00       1.22       7.19      20.46      27.65        0.03     0.01   0.962
  3951                      28.75       0.00       0.00       1.22       7.19      20.46      27.65        0.03     0.01   0.962
  3952                      28.75       0.00       0.00       1.22       7.19      20.46      27.65        0.03     0.01   0.962
  3953                      28.75       0.00       0.00       1.22       7.19      20.46      27.65        0.03     0.01   0.962
  3954                      28.75       0.00       0.00       1.22       7.19      20.46      27.65        0.03     0.01   0.962
  3955                      28.75       0.00       0.00       1.22       7.19      20.46      27.65        0.03     0.01   0.962
  3956                      28.75       0.00       0.00       1.22       7.19      20.46      27.65        0.03     0.01   0.962
  4032                      28.75       0.00       0.00       1.22       7.19      20.46      27.65        0.03     0.01   0.962
  4033                      28.75       0.00       0.00       1.22       7.19      20.46      27.65        0.03     0.01   0.962
  4041                      28.75       0.00       0.00       1.22       7.19      20.46      27.65        0.03     0.01   0.962
  4051                      28.75       0.00       0.00       1.22       7.19      20.46      27.65        0.03     0.01   0.962
  4055                      28.75       0.00       0.00       1.22       7.19      20.46      27.65        0.03     0.01   0.962
  4056                      28.75       0.00       0.00       1.22       7.19      20.46      27.65        0.03     0.01   0.962
  4058                      28.75       0.00       0.00       1.22       7.19      20.46      27.65        0.03     0.01   0.962
  4385                      28.75       0.00       0.00       1.22       7.19      20.46      27.65        0.03     0.01   0.962
  4386                      28.75       0.00       0.00       1.22       7.19      20.46      27.65        0.03     0.01   0.962
  4387                      28.75       0.00       0.00       1.22       7.19      20.46      27.65        0.03     0.01   0.962
  4388                      28.75       0.00       0.00       1.22       7.19      20.46      27.65        0.03     0.01   0.962
  4389                      28.75       0.00       0.00       1.22       7.19      20.46      27.65        0.03     0.01   0.962
  4390                      28.75       0.00       0.00       1.22       7.19      20.46      27.65        0.03     0.01   0.962
  4391                      28.75       0.00       0.00       1.22       7.19      20.46      27.65        0.03     0.01   0.962
  4392                      28.75       0.00       0.00       1.22       7.19      20.46      27.65        0.03     0.01   0.962
  4393                      28.75       0.00       0.00       1.22       7.19      20.46      27.65        0.03     0.01   0.962
  4394                      28.75       0.00       0.00       1.22       7.19      20.46      27.65        0.03     0.01   0.962
  4395                      28.75       0.00       0.00       1.22       7.19      20.46      27.65        0.03     0.01   0.962
  4396                      28.75       0.00       0.00       1.22       7.19      20.46      27.65        0.03     0.01   0.962
  4397                      28.75       0.00       0.00       1.22       7.19      20.46      27.65        0.03     0.01   0.962
  4398                      28.75       0.00       0.00       1.22       7.19      20.46      27.65        0.03     0.01   0.962
  4429                      28.75       0.00       0.00       1.22       7.19      20.46      27.65        0.03     0.01   0.962
  4430                      28.75       0.00       0.00       1.22       7.19      20.46      27.65        0.03     0.01   0.962
  4431                      28.75       0.00       0.00       1.22       7.19      20.46      27.65        0.03     0.01   0.962
  4432                      28.75       0.00       0.00       1.22       7.19      20.46      27.65        0.03     0.01   0.962
  4433                      28.75       0.00       0.00       1.22       7.19      20.46      27.65        0.03     0.01   0.962
  4434                      28.75       0.00       0.00       1.22       7.19      20.46      27.65        0.03     0.01   0.962
  4435                      28.75       0.00       0.00       1.22       7.19      20.46      27.65        0.03     0.01   0.962
  4436                      28.75       0.00       0.00       1.22       7.19      20.46      27.65        0.03     0.01   0.962
  4437                      28.75       0.00       0.00       1.22       7.19      20.46      27.65        0.03     0.01   0.962
  4438                      28.75       0.00       0.00       1.22       7.19      20.46      27.65        0.03     0.01   0.962
  4439                      28.75       0.00       0.00       1.22       7.19      20.46      27.65        0.03     0.01   0.962
  4440                      28.75       0.00       0.00       1.22       7.19      20.46      27.65        0.03     0.01   0.962
  4441                      28.75       0.00       0.00       1.22       7.19      20.46      27.65        0.03     0.01   0.962
  4442                      28.75       0.00       0.00       1.22       7.19      20.46      27.65        0.03     0.01   0.962
  4443                      28.75       0.00       0.00       1.22       7.19      20.46      27.65        0.03     0.01   0.962
  4444                      28.75       0.00       0.00       1.22       7.19      20.46      27.65        0.03     0.01   0.962
  4445                      28.75       0.00       0.00       1.22       7.19      20.46      27.65        0.03     0.01   0.962
  4446                      28.75       0.00       0.00       1.22       7.19      20.46      27.65        0.03     0.01   0.962
  4447                      28.75       0.00       0.00       1.22       7.19      20.46      27.65        0.03     0.01   0.962
  4448                      28.75       0.00       0.00       1.22       7.19      20.46      27.65        0.03     0.01   0.962
  4449                      28.75       0.00       0.00       1.22       7.19      20.46      27.65        0.03     0.01   0.962
  4450                      28.75       0.00       0.00       1.22       7.19      20.46      27.65        0.03     0.01   0.962
  4451                      28.75       0.00       0.00       1.22       7.19      20.46      27.65        0.03     0.01   0.962
  4452                      28.75       0.00       0.00       1.22       7.19      20.46      27.65        0.03     0.01   0.962
  4453                      28.75       0.00       0.00       1.22       7.19      20.46      27.65        0.03     0.01   0.962
  4454                      28.75       0.00       0.00       1.22       7.19      20.46      27.65        0.03     0.01   0.962
  4462                      28.75       0.00       0.00       1.22       7.19      20.46      27.65        0.03     0.01   0.962
  4463                      28.75       0.00       0.00       1.22       7.19      20.46      27.65        0.03     0.01   0.962
  4563                      28.75       0.00       0.00       1.22       7.19      20.46      27.65        0.03     0.01   0.962
  4564                      28.75       0.00       0.00       1.22       7.19      20.46      27.65        0.03     0.01   0.962
  4565                      28.75       0.00       0.00       1.22       7.19      20.46      27.65        0.03     0.01   0.962
  4566                      28.75       0.00       0.00       1.22       7.19      20.46      27.65        0.03     0.01   0.962
  4567                      28.75       0.00       0.00       1.22       7.19      20.46      27.65        0.03     0.01   0.962
  4568                      28.75       0.00       0.00       1.22       7.19      20.46      27.65        0.03     0.01   0.962
  4569                      28.75       0.00       0.00       1.22       7.19      20.46      27.65        0.03     0.01   0.962
  4570                      28.75       0.00       0.00       1.22       7.19      20.46      27.65        0.03     0.01   0.962
  4571                      28.75       0.00       0.00       1.22       7.19      20.46      27.65        0.03     0.01   0.962
  4572                      28.75       0.00       0.00       1.22       7.19      20.46      27.65        0.03     0.01   0.962
  4573                      28.75       0.00       0.00       1.22       7.19      20.46      27.65        0.03     0.01   0.962
  4574                      28.75       0.00       0.00       1.22       7.19      20.46      27.65        0.03     0.01   0.962
  4575                      28.75       0.00       0.00       1.22       7.19      20.46      27.65        0.03     0.01   0.962
  4576                      28.75       0.00       0.00       1.22       7.19      20.46      27.65        0.03     0.01   0.962
  4577                      28.75       0.00       0.00       1.22       7.19      20.46      27.65        0.03     0.01   0.962
  4578                      28.75       0.00       0.00       1.22       7.19      20.46      27.65        0.03     0.01   0.962
  4579                      28.75       0.00       0.00       1.22       7.19      20.46      27.65        0.03     0.01   0.962
  4580                      28.75       0.00       0.00       1.22       7.19      20.46      27.65        0.03     0.01   0.962
  4581                      28.75       0.00       0.00       1.22       7.19      20.46      27.65        0.03     0.01   0.962
  4624                      28.75       0.00       0.00       1.22       7.19      20.46      27.65        0.03     0.01   0.962
  4625                      28.75       0.00       0.00       1.22       7.19      20.46      27.65        0.03     0.01   0.962
  4644                      28.75       0.00       0.00       1.22       7.19      20.46      27.65        0.03     0.01   0.962
  4645                      28.75       0.00       0.00       1.22       7.19      20.46      27.65        0.03     0.01   0.962
  4646                      28.75       0.00       0.00       1.22       7.19      20.46      27.65        0.03     0.01   0.962
  4679                      28.75       0.00       0.00       1.22       7.19      20.46      27.65        0.03     0.01   0.962
  4680                      28.75       0.00       0.00       1.22       7.19      20.46      27.65        0.03     0.01   0.962
  4681                      28.75       0.00       0.00       1.22       7.19      20.46      27.65        0.03     0.01   0.962
  4682                      28.75       0.00       0.00       1.22       7.19      20.46      27.65        0.03     0.01   0.962
  4683                      28.75       0.00       0.00       1.22       7.19      20.46      27.65        0.03     0.01   0.962
  4711                      28.75       0.00       0.00       1.22       7.19      20.46      27.65        0.03     0.01   0.962
  4712                      28.75       0.00       0.00       1.22       7.19      20.46      27.65        0.03     0.01   0.962
  4713                      28.75       0.00       0.00       1.22       7.19      20.46      27.65        0.03     0.01   0.962
  4714                      28.75       0.00       0.00       1.22       7.19      20.46      27.65        0.03     0.01   0.962
  4715                      28.75       0.00       0.00       1.22       7.19      20.46      27.65        0.03     0.01   0.962
  4716                      28.75       0.00       0.00       1.22       7.19      20.46      27.65        0.03     0.01   0.962
  4717                      28.75       0.00       0.00       1.22       7.19      20.46      27.65        0.03     0.01   0.962
  4718                      28.75       0.00       0.00       1.22       7.19      20.46      27.65        0.03     0.01   0.962
  4722                      28.75       0.00       0.00       1.22       7.19      20.46      27.65        0.03     0.01   0.962
  4760                      28.75       0.00       0.00       1.22       7.19      20.46      27.65        0.03     0.01   0.962
  4761                      28.75       0.00       0.00       1.22       7.19      20.46      27.65        0.03     0.01   0.962
  4765                      28.75       0.00       0.00       1.22       7.19      20.46      27.65        0.03     0.01   0.962
  4766                      28.75       0.00       0.00       1.22       7.19      20.46      27.65        0.03     0.01   0.962
  4767                      28.75       0.00       0.00       1.22       7.19      20.46      27.65        0.03     0.01   0.962
  4768                      28.75       0.00       0.00       1.22       7.19      20.46      27.65        0.03     0.01   0.962
  4769                      28.75       0.00       0.00       1.22       7.19      20.46      27.65        0.03     0.01   0.962
  4855                      28.75       0.00       0.00       1.22       7.19      20.46      27.65        0.03     0.01   0.962
  4856                      28.75       0.00       0.00       1.22       7.19      20.46      27.65        0.03     0.01   0.962
  5284                      28.75       0.00       0.00       1.22       7.19      20.46      27.65        0.03     0.01   0.962
  5285                      28.75       0.00       0.00       1.22       7.19      20.46      27.65        0.03     0.01   0.962
  5286                      28.75       0.00       0.00       1.22       7.19      20.46      27.65        0.03     0.01   0.962
  5287                      28.75       0.00       0.00       1.22       7.19      20.46      27.65        0.03     0.01   0.962
  5288                      28.75       0.00       0.00       1.22       7.19      20.46      27.65        0.03     0.01   0.962
  5289                      28.75       0.00       0.00       1.22       7.19      20.46      27.65        0.03     0.01   0.962
  5290                      28.75       0.00       0.00       1.22       7.19      20.46      27.65        0.03     0.01   0.962
  5291                      28.75       0.00       0.00       1.22       7.19      20.46      27.65        0.03     0.01   0.962
  5292                      28.75       0.00       0.00       1.22       7.19      20.46      27.65        0.03     0.01   0.962
  5293                      28.75       0.00       0.00       1.22       7.19      20.46      27.65        0.03     0.01   0.962
  5294                      28.75       0.00       0.00       1.22       7.19      20.46      27.65        0.03     0.01   0.962
  5295                      28.75       0.00       0.00       1.22       7.19      20.46      27.65        0.03     0.01   0.962
  5296                      28.75       0.00       0.00       1.22       7.19      20.46      27.65        0.03     0.01   0.962
  5297                      28.75       0.00       0.00       1.22       7.19      20.46      27.65        0.03     0.01   0.962
  5298                      28.75       0.00       0.00       1.22       7.19      20.46      27.65        0.03     0.01   0.962
  5299                      28.75       0.00       0.00       1.22       7.19      20.46      27.65        0.03     0.01   0.962
  5300                      28.75       0.00       0.00       1.22       7.19      20.46      27.65        0.03     0.01   0.962
  5301                      28.75       0.00       0.00       1.22       7.19      20.46      27.65        0.03     0.01   0.962
  5302                      28.75       0.00       0.00       1.22       7.19      20.46      27.65        0.03     0.01   0.962
  5303                      28.75       0.00       0.00       1.22       7.19      20.46      27.65        0.03     0.01   0.962
  5304                      28.75       0.00       0.00       1.22       7.19      20.46      27.65        0.03     0.01   0.962
  5305                      28.75       0.00       0.00       1.22       7.19      20.46      27.65        0.03     0.01   0.962
  5306                      28.75       0.00       0.00       1.22       7.19      20.46      27.65        0.03     0.01   0.962
  5307                      28.75       0.00       0.00       1.22       7.19      20.46      27.65        0.03     0.01   0.962
  5308                      28.75       0.00       0.00       1.22       7.19      20.46      27.65        0.03     0.01   0.962
  5309                      28.75       0.00       0.00       1.22       7.19      20.46      27.65        0.03     0.01   0.962
  5310                      28.75       0.00       0.00       1.22       7.19      20.46      27.65        0.03     0.01   0.962
  5311                      28.75       0.00       0.00       1.22       7.19      20.46      27.65        0.03     0.01   0.962
  5312                      28.75       0.00       0.00       1.22       7.19      20.46      27.65        0.03     0.01   0.962
  5313                      28.75       0.00       0.00       1.22       7.19      20.46      27.65        0.03     0.01   0.962
  5314                      28.75       0.00       0.00       1.22       7.19      20.46      27.65        0.03     0.01   0.962
  5315                      28.75       0.00       0.00       1.22       7.19      20.46      27.65        0.03     0.01   0.962
  5316                      28.75       0.00       0.00       1.22       7.19      20.46      27.65        0.03     0.01   0.962
  5317                      28.75       0.00       0.00       1.22       7.19      20.46      27.65        0.03     0.01   0.962
  5318                      28.75       0.00       0.00       1.22       7.19      20.46      27.65        0.03     0.01   0.962
  5319                      28.75       0.00       0.00       1.22       7.19      20.46      27.65        0.03     0.01   0.962
  5320                      28.75       0.00       0.00       1.22       7.19      20.46      27.65        0.03     0.01   0.962
  5321                      28.75       0.00       0.00       1.22       7.19      20.46      27.65        0.03     0.01   0.962
  5322                      28.75       0.00       0.00       1.22       7.19      20.46      27.65        0.03     0.01   0.962
  5323                      28.75       0.00       0.00       1.22       7.19      20.46      27.65        0.03     0.01   0.962
  5324                      28.75       0.00       0.00       1.22       7.19      20.46      27.65        0.03     0.01   0.962
  5325                      28.75       0.00       0.00       1.22       7.19      20.46      27.65        0.03     0.01   0.962
  5326                      28.75       0.00       0.00       1.22       7.19      20.46      27.65        0.03     0.01   0.962
  5327                      28.75       0.00       0.00       1.22       7.19      20.46      27.65        0.03     0.01   0.962
  5328                      28.75       0.00       0.00       1.22       7.19      20.46      27.65        0.03     0.01   0.962
  5329                      28.75       0.00       0.00       1.22       7.19      20.46      27.65        0.03     0.01   0.962
  5330                      28.75       0.00       0.00       1.22       7.19      20.46      27.65        0.03     0.01   0.962
  5333                      28.75       0.00       0.00       1.22       7.19      20.46      27.65        0.03     0.01   0.962
  5334                      28.75       0.00       0.00       1.22       7.19      20.46      27.65        0.03     0.01   0.962
  6040                      28.75       0.00       0.00       1.22       7.19      20.46      27.65        0.03     0.01   0.962
  6041                      28.75       0.00       0.00       1.22       7.19      20.46      27.65        0.03     0.01   0.962
  6162                      28.75       0.00       0.00       1.22       7.19      20.46      27.65        0.03     0.01   0.962
  7207                      28.75       0.00       0.00       1.22       7.19      20.46      27.65        0.03     0.01   0.962
  7208                      28.75       0.00       0.00       1.22       7.19      20.46      27.65        0.03     0.01   0.962
  7213                      28.75       0.00       0.00       1.22       7.19      20.46      27.65        0.03     0.01   0.962
  7214                      28.75       0.00       0.00       1.22       7.19      20.46      27.65        0.03     0.01   0.962
  7219                      28.75       0.00       0.00       1.22       7.19      20.46      27.65        0.03     0.01   0.962
  7220                      28.75       0.00       0.00       1.22       7.19      20.46      27.65        0.03     0.01   0.962
  7221                      28.75       0.00       0.00       1.22       7.19      20.46      27.65        0.03     0.01   0.962
  7225                      28.75       0.00       0.00       1.22       7.19      20.46      27.65        0.03     0.01   0.962
  7229                      28.75       0.00       0.00       1.22       7.19      20.46      27.65        0.03     0.01   0.962
  7231                      28.75       0.00       0.00       1.22       7.19      20.46      27.65        0.03     0.01   0.962
  7268                      28.75       0.00       0.00       1.22       7.19      20.46      27.65        0.03     0.01   0.962
  7269                      28.75       0.00       0.00       1.22       7.19      20.46      27.65        0.03     0.01   0.962
  7271                      28.75       0.00       0.00       1.22       7.19      20.46      27.65        0.03     0.01   0.962
  7272                      28.75       0.00       0.00       1.22       7.19      20.46      27.65        0.03     0.01   0.962
  7273                      28.75       0.00       0.00       1.22       7.19      20.46      27.65        0.03     0.01   0.962
  7433                      28.75       0.00       0.00       1.22       7.19      20.46      27.65        0.03     0.01   0.962
  7434                      28.75       0.00       0.00       1.22       7.19      20.46      27.65        0.03     0.01   0.962
  7544                      28.75       0.00       0.00       1.22       7.19      20.46      27.65        0.03     0.01   0.962
  7545                      28.75       0.00       0.00       1.22       7.19      20.46      27.65        0.03     0.01   0.962
  8737                      28.75       0.00       0.00       1.22       7.19      20.46      27.65        0.03     0.01   0.962
  8818                      28.75       0.00       0.00       1.22       7.19      20.46      27.65        0.03     0.01   0.962
  9942                      28.75       0.00       0.00       1.22       7.19      20.46      27.65        0.03     0.01   0.962
  9957                      28.75       0.00       0.00       1.22       7.19      20.46      27.65        0.03     0.01   0.962
  4399                      28.75       0.00       0.00       1.14       7.19      20.51      27.70        0.01     0.00   0.963
  4400                      28.75       0.00       0.00       1.14       7.19      20.51      27.70        0.01     0.00   0.963
  4401                      28.75       0.00       0.00       1.14       7.19      20.51      27.70        0.01     0.00   0.963
  4402                      28.75       0.00       0.00       1.14       7.19      20.51      27.70        0.01     0.00   0.963
  4403                      28.75       0.00       0.00       1.14       7.19      20.51      27.70        0.01     0.00   0.963
  4404                      28.75       0.00       0.00       1.14       7.19      20.51      27.70        0.01     0.00   0.963
  4405                      28.75       0.00       0.00       1.14       7.19      20.51      27.70        0.01     0.00   0.963
  4406                      28.75       0.00       0.00       1.14       7.19      20.51      27.70        0.01     0.00   0.963
  4407                      28.75       0.00       0.00       1.14       7.19      20.51      27.70        0.01     0.00   0.963
  4408                      28.75       0.00       0.00       1.14       7.19      20.51      27.70        0.01     0.00   0.963
  4409                      28.75       0.00       0.00       1.14       7.19      20.51      27.70        0.01     0.00   0.963
  4410                      28.75       0.00       0.00       1.14       7.19      20.51      27.70        0.01     0.00   0.963
  4411                      28.75       0.00       0.00       1.14       7.19      20.51      27.70        0.01     0.00   0.963
  4412                      28.75       0.00       0.00       1.14       7.19      20.51      27.70        0.01     0.00   0.963
  4423                      28.75       0.00       0.00       1.14       7.19      20.51      27.70        0.01     0.00   0.963
  4424                      28.75       0.00       0.00       1.14       7.19      20.51      27.70        0.01     0.00   0.963
  4425                      28.75       0.00       0.00       1.14       7.19      20.51      27.70        0.01     0.00   0.963
  4426                      28.75       0.00       0.00       1.14       7.19      20.51      27.70        0.01     0.00   0.963
  4427                      28.75       0.00       0.00       1.14       7.19      20.51      27.70        0.01     0.00   0.963
  4428                      28.75       0.00       0.00       1.14       7.19      20.51      27.70        0.01     0.00   0.963
  4455                      28.75       0.00       0.00       1.14       7.19      20.51      27.70        0.01     0.00   0.963
  4456                      28.75       0.00       0.00       1.14       7.19      20.51      27.70        0.01     0.00   0.963
  4457                      28.75       0.00       0.00       1.14       7.19      20.51      27.70        0.01     0.00   0.963
  4458                      28.75       0.00       0.00       1.14       7.19      20.51      27.70        0.01     0.00   0.963
  4459                      28.75       0.00       0.00       1.14       7.19      20.51      27.70        0.01     0.00   0.963
  4460                      28.75       0.00       0.00       1.14       7.19      20.51      27.70        0.01     0.00   0.963
  4461                      28.75       0.00       0.00       1.14       7.19      20.51      27.70        0.01     0.00   0.963
  4464                      28.75       0.00       0.00       1.14       7.19      20.51      27.70        0.01     0.00   0.963
  4465                      28.75       0.00       0.00       1.14       7.19      20.51      27.70        0.01     0.00   0.963
  4466                      28.75       0.00       0.00       1.14       7.19      20.51      27.70        0.01     0.00   0.963
  4467                      28.75       0.00       0.00       1.14       7.19      20.51      27.70        0.01     0.00   0.963
  4468                      28.75       0.00       0.00       1.14       7.19      20.51      27.70        0.01     0.00   0.963
  4469                      28.75       0.00       0.00       1.14       7.19      20.51      27.70        0.01     0.00   0.963
  4470                      28.75       0.00       0.00       1.14       7.19      20.51      27.70        0.01     0.00   0.963
  4471                      28.75       0.00       0.00       1.14       7.19      20.51      27.70        0.01     0.00   0.963
  4472                      28.75       0.00       0.00       1.14       7.19      20.51      27.70        0.01     0.00   0.963
  4473                      28.75       0.00       0.00       1.14       7.19      20.51      27.70        0.01     0.00   0.963
  4474                      28.75       0.00       0.00       1.14       7.19      20.51      27.70        0.01     0.00   0.963
  4628                      28.75       0.00       0.00       1.14       7.19      20.51      27.70        0.01     0.00   0.963
  4631                      28.75       0.00       0.00       1.14       7.19      20.51      27.70        0.01     0.00   0.963
  4632                      28.75       0.00       0.00       1.14       7.19      20.51      27.70        0.01     0.00   0.963
  4633                      28.75       0.00       0.00       1.14       7.19      20.51      27.70        0.01     0.00   0.963
  4634                      28.75       0.00       0.00       1.14       7.19      20.51      27.70        0.01     0.00   0.963
  4637                      28.75       0.00       0.00       1.14       7.19      20.51      27.70        0.01     0.00   0.963
  4686                      28.75       0.00       0.00       1.14       7.19      20.51      27.70        0.01     0.00   0.963
  4687                      28.75       0.00       0.00       1.14       7.19      20.51      27.70        0.01     0.00   0.963
  4688                      28.75       0.00       0.00       1.14       7.19      20.51      27.70        0.01     0.00   0.963
  5032                      28.75       0.00       0.00       1.14       7.19      20.51      27.70        0.01     0.00   0.963
  5331                      28.75       0.00       0.00       1.14       7.19      20.51      27.70        0.01     0.00   0.963
  5332                      28.75       0.00       0.00       1.14       7.19      20.51      27.70        0.01     0.00   0.963
  5335                      28.75       0.00       0.00       1.14       7.19      20.51      27.70        0.01     0.00   0.963
  5336                      28.75       0.00       0.00       1.14       7.19      20.51      27.70        0.01     0.00   0.963
  5337                      28.75       0.00       0.00       1.14       7.19      20.51      27.70        0.01     0.00   0.963
  5338                      28.75       0.00       0.00       1.14       7.19      20.51      27.70        0.01     0.00   0.963
  5339                      28.75       0.00       0.00       1.14       7.19      20.51      27.70        0.01     0.00   0.963
  5340                      28.75       0.00       0.00       1.14       7.19      20.51      27.70        0.01     0.00   0.963
  5341                      28.75       0.00       0.00       1.14       7.19      20.51      27.70        0.01     0.00   0.963
  5342                      28.75       0.00       0.00       1.14       7.19      20.51      27.70        0.01     0.00   0.963
  5343                      28.75       0.00       0.00       1.14       7.19      20.51      27.70        0.01     0.00   0.963
  5344                      28.75       0.00       0.00       1.14       7.19      20.51      27.70        0.01     0.00   0.963
  5345                      28.75       0.00       0.00       1.14       7.19      20.51      27.70        0.01     0.00   0.963
  5346                      28.75       0.00       0.00       1.14       7.19      20.51      27.70        0.01     0.00   0.963
  5347                      28.75       0.00       0.00       1.14       7.19      20.51      27.70        0.01     0.00   0.963
  5348                      28.75       0.00       0.00       1.14       7.19      20.51      27.70        0.01     0.00   0.963
  5349                      28.75       0.00       0.00       1.14       7.19      20.51      27.70        0.01     0.00   0.963
  5350                      28.75       0.00       0.00       1.14       7.19      20.51      27.70        0.01     0.00   0.963
  6088                      28.75       0.00       0.00       1.14       7.19      20.51      27.70        0.01     0.00   0.963
  7275                      28.75       0.00       0.00       1.14       7.19      20.51      27.70        0.01     0.00   0.963
  9955                      28.75       0.00       0.00       1.14       7.19      20.51      27.70        0.01     0.00   0.963
  9956                      28.75       0.00       0.00       1.14       7.19      20.51      27.70        0.01     0.00   0.963
  
  
  ****************************
  Subcatchment Washoff Summary
  ****************************
  
  ----------------------------------
                                 COD
  Subcatchment                    kg
  ----------------------------------
  2707                         7.272
  2708                         7.272
  2709                         7.272
  2710                         7.272
  2712                         7.272
  2713                         7.272
  2714                         7.272
  2715                         7.272
  2716                         7.272
  2717                         7.272
  2718                         7.272
  2719                         7.272
  2721                         7.272
  2722                         7.272
  2723                         7.272
  2724                         7.272
  2725                         7.272
  2726                         7.272
  2727                         7.272
  2728                         7.272
  2729                         7.272
  2730                         7.272
  2731                         7.272
  2732                         7.272
  2733                         7.272
  2734                         7.272
  2735                         7.272
  2736                         7.272
  2737                         7.272
  2738                         7.272
  2739                         7.272
  2740                         7.272
  2741                         7.272
  2742                         7.272
  2743                         7.272
  2744                         7.272
  2745                         7.272
  2746                         7.272
  2747                         7.272
  2748                         7.272
  2749                         7.272
  2750                         7.272
  2751                         7.272
  2752                         7.272
  2753                         7.272
  2754                         7.272
  2755                         7.272
  2756                         7.272
  2964                         7.272
  2969                         7.272
  2970                         7.272
  2974                         7.272
  2975                         7.272
  2976                         7.272
  2977                         7.272
  2978                         7.272
  2979                         7.272
  2980                         7.272
  2981                         7.272
  2982                         7.272
  2984                         7.272
  2985                         7.272
  3925                         7.272
  3926                         7.272
  3927                         7.272
  3928                         7.272
  3929                         7.272
  3930                         7.272
  3931                         7.272
  3932                         7.272
  3933                         7.272
  3934                         7.272
  3935                         7.272
  3936                         7.272
  3937                         7.272
  3938                         7.272
  3939                         7.272
  3940                         7.272
  3941                         7.272
  3942                         7.272
  3943                         7.272
  3944                         7.272
  3945                         7.272
  3946                         7.272
  3947                         7.272
  3948                         7.272
  3949                         7.272
  3950                         7.272
  3951                         7.272
  3952                         7.272
  3953                         7.272
  3954                         7.272
  3955                         7.272
  3956                         7.272
  4032                         7.272
  4033                         7.272
  4041                         7.272
  4051                         7.272
  4055                         7.272
  4056                         7.272
  4058                         7.272
  4385                         7.272
  4386                         7.272
  4387                         7.272
  4388                         7.272
  4389                         7.272
  4390                         7.272
  4391                         7.272
  4392                         7.272
  4393                         7.272
  4394                         7.272
  4395                         7.272
  4396                         7.272
  4397                         7.272
  4398                         7.272
  4429                         7.272
  4430                         7.272
  4431                         7.272
  4432                         7.272
  4433                         7.272
  4434                         7.272
  4435                         7.272
  4436                         7.272
  4437                         7.272
  4438                         7.272
  4439                         7.272
  4440                         7.272
  4441                         7.272
  4442                         7.272
  4443                         7.272
  4444                         7.272
  4445                         7.272
  4446                         7.272
  4447                         7.272
  4448                         7.272
  4449                         7.272
  4450                         7.272
  4451                         7.272
  4452                         7.272
  4453                         7.272
  4454                         7.272
  4462                         7.272
  4463                         7.272
  4563                         7.272
  4564                         7.272
  4565                         7.272
  4566                         7.272
  4567                         7.272
  4568                         7.272
  4569                         7.272
  4570                         7.272
  4571                         7.272
  4572                         7.272
  4573                         7.272
  4574                         7.272
  4575                         7.272
  4576                         7.272
  4577                         7.272
  4578                         7.272
  4579                         7.272
  4580                         7.272
  4581                         7.272
  4624                         7.272
  4625                         7.272
  4644                         7.272
  4645                         7.272
  4646                         7.272
  4679                         7.272
  4680                         7.272
  4681                         7.272
  4682                         7.272
  4683                         7.272
  4711                         7.272
  4712                         7.272
  4713                         7.272
  4714                         7.272
  4715                         7.272
  4716                         7.272
  4717                         7.272
  4718                         7.272
  4722                         7.272
  4760                         7.272
  4761                         7.272
  4765                         7.272
  4766                         7.272
  4767                         7.272
  4768                         7.272
  4769                         7.272
  4855                         7.272
  4856                         7.272
  5284                         7.272
  5285                         7.272
  5286                         7.272
  5287                         7.272
  5288                         7.272
  5289                         7.272
  5290                         7.272
  5291                         7.272
  5292                         7.272
  5293                         7.272
  5294                         7.272
  5295                         7.272
  5296                         7.272
  5297                         7.272
  5298                         7.272
  5299                         7.272
  5300                         7.272
  5301                         7.272
  5302                         7.272
  5303                         7.272
  5304                         7.272
  5305                         7.272
  5306                         7.272
  5307                         7.272
  5308                         7.272
  5309                         7.272
  5310                         7.272
  5311                         7.272
  5312                         7.272
  5313                         7.272
  5314                         7.272
  5315                         7.272
  5316                         7.272
  5317                         7.272
  5318                         7.272
  5319                         7.272
  5320                         7.272
  5321                         7.272
  5322                         7.272
  5323                         7.272
  5324                         7.272
  5325                         7.272
  5326                         7.272
  5327                         7.272
  5328                         7.272
  5329                         7.272
  5330                         7.272
  5333                         7.272
  5334                         7.272
  6040                         7.272
  6041                         7.272
  6162                         7.272
  7207                         7.272
  7208                         7.272
  7213                         7.272
  7214                         7.272
  7219                         7.272
  7220                         7.272
  7221                         7.272
  7225                         7.272
  7229                         7.272
  7231                         7.272
  7268                         7.272
  7269                         7.272
  7271                         7.272
  7272                         7.272
  7273                         7.272
  7433                         7.272
  7434                         7.272
  7544                         7.272
  7545                         7.272
  8737                         7.272
  8818                         7.272
  9942                         7.272
  9957                         7.272
  4399                         2.185
  4400                         2.185
  4401                         2.185
  4402                         2.185
  4403                         2.185
  4404                         2.185
  4405                         2.185
  4406                         2.185
  4407                         2.185
  4408                         2.185
  4409                         2.185
  4410                         2.185
  4411                         2.185
  4412                         2.185
  4423                         2.185
  4424                         2.185
  4425                         2.185
  4426                         2.185
  4427                         2.185
  4428                         2.185
  4455                         2.185
  4456                         2.185
  4457                         2.185
  4458                         2.185
  4459                         2.185
  4460                         2.185
  4461                         2.185
  4464                         2.185
  4465                         2.185
  4466                         2.185
  4467                         2.185
  4468                         2.185
  4469                         2.185
  4470                         2.185
  4471                         2.185
  4472                         2.185
  4473                         2.185
  4474                         2.185
  4628                         2.185
  4631                         2.185
  4632                         2.185
  4633                         2.185
  4634                         2.185
  4637                         2.185
  4686                         2.185
  4687                         2.185
  4688                         2.185
  5032                         2.185
  5331                         2.185
  5332                         2.185
  5335                         2.185
  5336                         2.185
  5337                         2.185
  5338                         2.185
  5339                         2.185
  5340                         2.185
  5341                         2.185
  5342                         2.185
  5343                         2.185
  5344                         2.185
  5345                         2.185
  5346                         2.185
  5347                         2.185
  5348                         2.185
  5349                         2.185
  5350                         2.185
  6088                         2.185
  7275                         2.185
  9955                         2.185
  9956                         2.185
  ----------------------------------
  System                    2080.055
  
  
  ******************
  Node Depth Summary
  ******************
  
  ---------------------------------------------------------------------------------
                                 Average  Maximum  Maximum  Time of Max    Reported
                                   Depth    Depth      HGL   Occurrence   Max Depth
  Node                 Type       Meters   Meters   Meters  days hr:min      Meters
  ---------------------------------------------------------------------------------
<<<<<<< HEAD
  Node_02706           JUNCTION     2.02     4.42   101.26     0  02:44        0.00
  Node_02707           JUNCTION     0.74     2.56   101.99     0  02:29        0.00
  Node_02708           JUNCTION     0.60     2.67   102.42     0  02:29        0.00
  Node_02709           JUNCTION     0.70     2.89   102.52     0  02:29        0.00
  Node_02711           JUNCTION     0.39     2.59   102.50     0  02:29        0.00
  Node_02712           JUNCTION     0.39     2.57   102.47     0  02:29        0.00
  Node_02713           JUNCTION     0.44     2.56   102.41     0  02:29        0.00
  Node_02714           JUNCTION     0.11     2.02   102.42     0  02:29        0.00
  Node_02715           JUNCTION     0.45     2.40   102.21     0  02:29        0.00
  Node_02716           JUNCTION     0.51     2.33   102.05     0  02:29        0.00
  Node_02717           JUNCTION     0.57     2.36   101.99     0  02:30        0.00
  Node_02718           JUNCTION     0.58     2.41   102.01     0  02:30        0.00
  Node_02720           JUNCTION     0.60     2.45   102.02     0  02:29        0.00
  Node_02721           JUNCTION     0.90     2.78   102.03     0  02:29        0.00
  Node_02722           JUNCTION     0.13     0.22   102.02     0  02:30        0.00
  Node_02723           JUNCTION     0.84     2.69   101.99     0  02:29        0.00
  Node_02724           JUNCTION     0.70     2.49   101.91     0  02:29        0.00
  Node_02725           JUNCTION     0.72     2.45   101.82     0  02:30        0.00
  Node_02726           JUNCTION     0.80     2.46   101.72     0  02:30        0.00
  Node_02727           JUNCTION     0.91     2.50   101.63     0  02:30        0.00
  Node_02728           JUNCTION     0.27     1.55   101.63     0  02:30        0.00
  Node_02729           JUNCTION     0.95     2.47   101.53     0  02:30        0.00
  Node_02730           JUNCTION     0.97     2.40   101.42     0  02:30        0.00
  Node_02731           JUNCTION     1.39     2.70   101.29     0  02:30        0.00
  Node_02732           JUNCTION     0.96     2.19   101.21     0  02:29        0.00
  Node_02733           JUNCTION     0.93     2.23   101.24     0  02:44        0.00
  Node_02734           JUNCTION     1.20     2.55   101.26     0  02:43        0.00
  Node_02735           JUNCTION     1.09     2.45   101.26     0  02:44        0.00
  Node_02736           JUNCTION     1.26     2.65   101.26     0  02:44        0.00
  Node_02737           JUNCTION     1.22     2.65   101.27     0  02:45        0.00
  Node_02738           JUNCTION     1.02     2.51   101.28     0  02:45        0.00
  Node_02739           JUNCTION     0.86     2.42   101.29     0  02:44        0.00
  Node_02740           JUNCTION     0.84     2.46   101.30     0  02:45        0.00
  Node_02741           JUNCTION     0.50     2.00   101.30     0  02:45        0.00
  Node_02742           JUNCTION     0.83     2.49   101.30     0  02:45        0.00
  Node_02743           JUNCTION     1.20     2.93   101.30     0  02:45        0.00
  Node_02744           JUNCTION     0.39     1.95   101.30     0  02:45        0.00
  Node_02745           JUNCTION     0.91     2.68   101.30     0  02:44        0.00
  Node_02746           JUNCTION     0.77     2.61   101.30     0  02:44        0.00
  Node_02747           JUNCTION     0.10     1.01   101.36     0  02:28        0.00
  Node_02748           JUNCTION     0.07     0.85   101.30     0  02:44        0.00
  Node_02749           JUNCTION     0.74     2.66   101.30     0  02:45        0.00
  Node_02750           JUNCTION     0.71     2.69   101.29     0  02:45        0.00
  Node_02751           JUNCTION     0.66     2.69   101.29     0  02:45        0.00
  Node_02752           JUNCTION     0.63     2.73   101.28     0  02:45        0.00
  Node_02753           JUNCTION     0.62     2.80   101.27     0  02:45        0.00
  Node_02754           JUNCTION     0.54     2.94   101.26     0  02:45        0.00
  Node_02755           JUNCTION     1.47     3.87   101.26     0  02:44        0.00
  Node_02963           JUNCTION     0.39     2.09   102.00     0  02:30        0.00
  Node_02968           JUNCTION     0.15     1.17   101.29     0  02:45        0.00
  Node_02969           JUNCTION     0.19     1.42   101.30     0  02:44        0.00
  Node_02973           JUNCTION     0.99     3.38   101.27     0  02:45        0.00
  Node_02974           JUNCTION     0.95     3.67   100.80     0  02:45        0.00
  Node_02975           JUNCTION     0.96     3.69   100.82     0  02:45        0.00
  Node_02976           JUNCTION     1.04     3.82   101.01     0  02:45        0.00
  Node_02977           JUNCTION     1.11     3.97   101.30     0  02:44        0.00
  Node_02978           JUNCTION     1.00     3.90   101.43     0  02:45        0.00
  Node_02979           JUNCTION     0.86     3.55   100.67     0  02:45        0.00
  Node_02980           JUNCTION     0.74     3.40   100.49     0  02:45        0.00
  Node_02981           JUNCTION     0.68     3.36   100.31     0  02:45        0.00
  Node_02983           JUNCTION     0.14     1.17   101.29     0  02:45        0.00
  Node_02984           JUNCTION     1.45     4.28   101.26     0  02:45        0.00
  Node_03924           JUNCTION     0.10     1.00   101.82     0  02:21        0.00
  Node_03925           JUNCTION     0.38     2.06   102.43     0  02:43        0.00
  Node_03926           JUNCTION     0.08     0.96   102.43     0  02:43        0.00
  Node_03927           JUNCTION     0.36     2.05   102.43     0  02:43        0.00
  Node_03928           JUNCTION     0.37     2.08   102.42     0  02:37        0.00
  Node_03929           JUNCTION     0.37     2.10   102.41     0  02:37        0.00
  Node_03930           JUNCTION     0.39     2.14   102.39     0  02:43        0.00
  Node_03931           JUNCTION     0.38     2.12   102.37     0  02:29        0.00
  Node_03932           JUNCTION     0.40     2.16   102.32     0  02:42        0.00
  Node_03933           JUNCTION     0.40     2.13   102.25     0  02:37        0.00
  Node_03934           JUNCTION     0.15     1.39   102.26     0  02:34        0.00
  Node_03935           JUNCTION     0.44     2.17   102.15     0  02:29        0.00
  Node_03936           JUNCTION     0.45     2.12   102.05     0  02:27        0.00
  Node_03937           JUNCTION     1.25     1.77   101.93     0  02:21        0.00
  Node_03938           JUNCTION     0.73     3.25   102.44     0  02:40        0.00
  Node_03939           JUNCTION     0.79     3.39   102.43     0  02:42        0.00
  Node_03940           JUNCTION     0.83     3.47   102.40     0  02:22        0.00
  Node_03941           JUNCTION     0.89     3.53   102.34     0  02:19        0.00
  Node_03942           JUNCTION     0.91     3.53   102.28     0  02:23        0.00
  Node_03943           JUNCTION     0.95     3.58   102.19     0  01:55        0.00
  Node_03944           JUNCTION     1.02     3.69   102.17     0  01:55        0.00
  Node_03945           JUNCTION     1.07     3.78   102.20     0  02:19        0.00
  Node_03946           JUNCTION     1.13     3.88   102.23     0  02:42        0.00
  Node_03947           JUNCTION     1.35     4.36   102.25     0  02:43        0.00
  Node_03948           JUNCTION     1.31     4.40   102.25     0  02:44        0.00
  Node_03949           JUNCTION     1.40     4.55   102.25     0  02:44        0.00
  Node_03950           JUNCTION     1.27     4.46   102.23     0  02:45        0.00
  Node_03951           JUNCTION     1.25     4.50   102.19     0  02:44        0.00
  Node_03952           JUNCTION     1.25     4.53   102.12     0  02:44        0.00
  Node_03953           JUNCTION     1.15     4.43   102.01     0  02:44        0.00
  Node_03954           JUNCTION     2.01     5.22   101.80     0  02:45        0.00
  Node_03955           JUNCTION     0.95     4.05   101.54     0  02:45        0.00
  Node_04031           JUNCTION     0.19     1.03   102.26     0  02:45        0.00
  Node_04032           JUNCTION     1.06     3.90   102.25     0  02:44        0.00
  Node_04040           JUNCTION     0.34     1.73   102.28     0  02:31        0.00
  Node_04050           JUNCTION     0.31     1.45   102.41     0  02:54        0.00
  Node_04054           JUNCTION     0.11     1.28   102.42     0  02:36        0.00
  Node_04055           JUNCTION     0.24     1.51   102.32     0  02:44        0.00
  Node_04057           JUNCTION     0.18     1.60   101.91     0  02:21        0.00
  Node_04384           JUNCTION     1.18     4.09   101.67     0  02:44        0.00
  Node_04385           JUNCTION     0.90     3.81   101.73     0  02:45        0.00
  Node_04386           JUNCTION     0.90     3.80   101.74     0  02:45        0.00
  Node_04387           JUNCTION     0.90     3.80   101.77     0  02:44        0.00
  Node_04388           JUNCTION     0.90     3.79   101.79     0  02:43        0.00
  Node_04389           JUNCTION     0.22     1.44   101.81     0  02:44        0.00
  Node_04390           JUNCTION     0.89     3.78   101.80     0  02:44        0.00
  Node_04391           JUNCTION     0.89     3.77   101.83     0  02:45        0.00
  Node_04392           JUNCTION     1.01     3.87   101.83     0  02:44        0.00
  Node_04393           JUNCTION     0.89     3.72   101.83     0  02:42        0.00
  Node_04394           JUNCTION     0.30     2.19   101.84     0  02:44        0.00
  Node_04395           JUNCTION     0.89     3.69   101.84     0  02:44        0.00
  Node_04396           JUNCTION     0.88     3.64   101.84     0  02:43        0.00
  Node_04397           JUNCTION     0.21     1.95   101.85     0  02:43        0.00
  Node_04428           JUNCTION     0.89     3.63   101.85     0  02:45        0.00
  Node_04429           JUNCTION     0.89     3.60   101.85     0  02:44        0.00
  Node_04430           JUNCTION     0.88     3.57   101.85     0  02:43        0.00
  Node_04431           JUNCTION     0.73     3.27   101.84     0  02:41        0.00
  Node_04432           JUNCTION     0.67     3.16   101.84     0  02:44        0.00
  Node_04433           JUNCTION     0.54     2.96   101.84     0  02:44        0.00
  Node_04434           JUNCTION     0.80     3.24   101.83     0  02:44        0.00
  Node_04435           JUNCTION     0.66     3.05   101.83     0  02:44        0.00
  Node_04436           JUNCTION     1.07     3.41   101.81     0  02:43        0.00
  Node_04437           JUNCTION     1.22     3.50   101.79     0  02:41        0.00
  Node_04438           JUNCTION     1.53     3.79   101.80     0  02:45        0.00
  Node_04439           JUNCTION     0.59     2.84   101.81     0  02:43        0.00
  Node_04440           JUNCTION     0.59     2.80   101.82     0  02:40        0.00
  Node_04441           JUNCTION     0.41     2.49   101.82     0  02:41        0.00
  Node_04442           JUNCTION     0.67     2.86   101.83     0  02:42        0.00
  Node_04443           JUNCTION     0.55     2.69   101.83     0  02:43        0.00
  Node_04444           JUNCTION     0.55     2.65   101.83     0  02:45        0.00
  Node_04445           JUNCTION     0.50     2.58   101.84     0  02:42        0.00
  Node_04446           JUNCTION     0.49     2.52   101.85     0  02:42        0.00
  Node_04447           JUNCTION     0.46     2.42   101.86     0  02:45        0.00
  Node_04448           JUNCTION     0.48     2.43   101.88     0  02:19        0.00
  Node_04449           JUNCTION     0.50     2.45   101.91     0  02:19        0.00
  Node_04450           JUNCTION     0.65     2.60   101.92     0  02:19        0.00
  Node_04451           JUNCTION     0.49     2.39   101.93     0  02:19        0.00
  Node_04452           JUNCTION     0.30     2.14   101.96     0  02:19        0.00
  Node_04453           JUNCTION     0.20     1.75   101.97     0  02:19        0.00
  Node_04461           JUNCTION     0.47     2.29   101.91     0  02:19        0.00
  Node_04462           JUNCTION     0.47     2.33   101.98     0  02:40        0.00
  Node_04562           JUNCTION     0.34     2.46   102.05     0  02:19        0.00
  Node_04563           JUNCTION     0.63     2.92   102.04     0  02:19        0.00
  Node_04564           JUNCTION     0.41     2.70   102.08     0  02:20        0.00
  Node_04565           JUNCTION     0.43     2.74   102.11     0  02:20        0.00
  Node_04566           JUNCTION     0.54     2.90   102.09     0  02:20        0.00
  Node_04567           JUNCTION     0.49     2.84   102.06     0  02:20        0.00
  Node_04568           JUNCTION     0.48     2.84   102.03     0  02:19        0.00
  Node_04569           JUNCTION     0.59     3.04   102.01     0  02:19        0.00
  Node_04570           JUNCTION     0.33     2.29   102.02     0  02:19        0.00
  Node_04571           JUNCTION     0.59     2.99   101.92     0  02:19        0.00
  Node_04572           JUNCTION     1.96     4.44   101.97     0  02:20        0.00
  Node_04573           JUNCTION     1.63     4.16   102.00     0  02:20        0.00
  Node_04574           JUNCTION     2.29     3.75   102.05     0  02:20        0.00
  Node_04575           JUNCTION     2.09     4.73   102.04     0  02:20        0.00
  Node_04576           JUNCTION     0.69     3.35   102.00     0  02:20        0.00
  Node_04577           JUNCTION     0.71     3.36   101.94     0  02:42        0.00
  Node_04578           JUNCTION     0.73     3.42   101.92     0  02:45        0.00
  Node_04579           JUNCTION     0.77     3.49   101.90     0  02:42        0.00
  Node_04580           JUNCTION     0.29     1.98   101.76     0  02:19        0.00
  Node_04623           JUNCTION     0.24     2.06   101.72     0  02:45        0.00
  Node_04624           JUNCTION     0.34     2.38   101.84     0  02:40        0.00
  Node_04643           JUNCTION     0.28     2.01   101.92     0  02:19        0.00
  Node_04644           JUNCTION     0.27     1.99   101.83     0  02:44        0.00
  Node_04645           JUNCTION     0.45     2.05   101.65     0  02:19        0.00
  Node_04678           JUNCTION     0.27     2.13   101.85     0  02:44        0.00
  Node_04679           JUNCTION     0.15     1.54   101.72     0  02:45        0.00
  Node_04680           JUNCTION     0.95     3.85   101.62     0  02:45        0.00
  Node_04681           JUNCTION     0.93     3.83   101.55     0  02:45        0.00
  Node_04682           JUNCTION     0.11     1.00   102.01     0  02:20        0.00
  Node_04710           JUNCTION     0.58     1.98   101.97     0  05:48        0.00
[...]
  Link_01757                 164.934
  Link_01758                  10.164
  Link_01759                  10.302
  Link_01760                 172.307
  Link_01761                 172.187
  Link_01762                 172.787
  Link_01763                  26.070
  Link_01764                 178.853
  Link_01765                 173.140
  Link_01766                 166.595
  Link_01767                 309.762
  Link_01768                 311.347
  Link_01769                 314.269
  Link_01770                 318.723
  Link_01771                 322.865
  Link_01772                  29.569
  Link_01773                 347.379
  Link_01774                  32.005
  Link_01775                 229.255
  Link_01776                 216.954
  Link_01777                 198.596
  Link_01778                 338.491
  Link_01779                 179.375
  Link_01780                 387.460
  Link_01781                  88.113
  Link_01782                 393.123
  Link_01783                  10.614
  Link_01784                 409.804
  Link_01785                 418.751
  Link_01786                  60.901
  Link_01787                  32.156
  Link_01788                 517.666
  Link_01789                 527.428
  Link_01790                  16.063
  Link_01791                  15.648
  Link_01792                  14.888
  Link_01793                 575.182
  Link_01794                 584.040
  Link_01795                 592.736
  Link_01796                 601.294
  Link_01797                 608.447
  Link_01798                1020.945
  Link_01799                1015.915
  Link_01800                1025.664
  Link_01801                 640.532
  Link_01802                 969.941
  Link_01803                1006.758
  Link_01804                 855.936
  Link_01805                 846.834
  Link_01806                 837.430
  Link_01807                 827.838
  Link_01808                  14.385
  Link_01809                 804.647
  Link_01810                 787.538
  Link_01811                   7.297
  Link_01812                  52.587
  Link_01813                  43.033
  Link_01814                 751.239
  Link_01815                 741.407
  Link_01816                 722.606
  Link_01817                   9.050
  Link_01818                 687.930
  Link_01819                 665.855
  Link_01820                  12.501
  Link_01821                  25.323
  Link_01822                   5.709
  Link_01823                 181.839
  Link_01824                 179.259
>>>>>>> b040755ab93617f94f1ab7a7036927f36e763e5a
>>>>>>> ebd46bdc835ac17077bb70c3b6f6db3a4ee81ecd
  Link_01825                  50.628
  Link_01826                  52.953
  Link_01827                   2.183
  Link_01828                  57.506
  Link_01829                   5.694
  Link_01830                  65.637
  Link_01831                   2.183
  Link_01832                  70.211
  Link_01833                  72.549
  Link_01834                  77.235
  Link_01835                   2.183
  Link_01836                  39.828
  Link_01837                  20.052
  Link_01838                  27.886
  Link_01839                  37.411
  Link_01840                  35.192
  Link_01841                  32.970
  Link_01842                  26.791
  Link_01843                  22.271
  Link_01844                  20.044
<<<<<<< HEAD
  Link_02074                  10.817
  Link_02075                 117.563
  Link_02076                 126.941
  Link_02077                  17.198
  Link_02078                 150.064
  Link_02079                  12.653
  Link_02080                 170.616
  Link_02081                 178.233
  Link_02082                 185.862
  Link_02083                  12.703
  Link_02084                  10.895
  Link_02085                 461.380
  Link_02086                 457.335
  Link_02087                 456.238
  Link_02088                 454.990
  Link_02089                 454.069
  Link_02090                 465.158
  Link_02091                 457.459
  Link_02092                 449.663
  Link_02093                  10.752
  Link_02094                 422.420
  Link_02095                 414.513
  Link_02096                 410.518
  Link_02097                  17.861
  Link_02098                  50.308
  Link_02099                 402.718
  Link_02100                 394.953
  Link_02101                  38.098
  Link_02102                 395.199
  Link_02103                 371.445
  Link_02104                  22.054
  Link_02105                 300.788
  Link_02106                  14.687
  Link_02107                   7.428
  Link_02108                 308.705
  Link_02109                 301.801
  Link_02110                 264.242
  Link_02111                 174.461
  Link_02112                  16.095
=======
<<<<<<< HEAD
  Link_02074                  10.832
  Link_02075                 116.738
  Link_02076                 125.429
  Link_02077                  17.001
  Link_02078                 147.051
  Link_02079                  12.565
  Link_02080                 167.549
  Link_02081                 175.131
  Link_02082                 182.803
  Link_02083                  12.718
  Link_02084                  10.824
  Link_02085                 499.061
  Link_02086                 495.622
  Link_02087                 495.172
  Link_02088                 493.418
  Link_02089                 491.558
  Link_02090                 495.489
  Link_02091                 487.250
  Link_02092                 478.973
  Link_02093                  10.755
  Link_02094                 450.622
  Link_02095                 442.326
  Link_02096                 436.662
  Link_02097                  17.885
  Link_02098                  48.576
  Link_02099                 428.692
  Link_02100                 420.880
  Link_02101                  34.733
  Link_02102                 417.316
  Link_02103                 393.311
  Link_02104                  22.300
  Link_02105                 319.401
  Link_02106                  14.673
  Link_02107                   7.410
  Link_02108                 319.092
  Link_02109                 312.596
  Link_02110                 264.240
  Link_02111                 174.461
  Link_02112                  16.098
>>>>>>> ebd46bdc835ac17077bb70c3b6f6db3a4ee81ecd
  Link_02113                 128.463
  Link_02114                  35.649
  Link_02115                  33.325
  Link_02116                  31.076
  Link_02117                  28.870
<<<<<<< HEAD
=======
=======
  Link_02074                  10.848
  Link_02075                 119.502
  Link_02076                 130.145
  Link_02077                  17.129
  Link_02078                 154.282
  Link_02079                  12.656
  Link_02080                 174.860
  Link_02081                 182.405
  Link_02082                 189.995
  Link_02083                  12.688
  Link_02084                  10.829
  Link_02085                 479.879
  Link_02086                 474.393
  Link_02087                 473.266
  Link_02088                 471.697
  Link_02089                 470.301
  Link_02090                 482.989
  Link_02091                 474.781
  Link_02092                 466.450
  Link_02093                  10.734
  Link_02094                 438.417
  Link_02095                 430.032
  Link_02096                 422.658
  Link_02097                  17.874
  Link_02098                  47.850
  Link_02099                 414.592
  Link_02100                 406.601
  Link_02101                  36.446
  Link_02102                 405.010
  Link_02103                 380.997
  Link_02104                  22.632
  Link_02105                 307.106
  Link_02106                  14.852
  Link_02107                   7.450
  Link_02108                 313.371
  Link_02109                 305.463
  Link_02110                 264.238
  Link_02111                 174.460
  Link_02112                  16.162
  Link_02113                 128.463
  Link_02114                  35.648
  Link_02115                  33.324
  Link_02116                  31.076
  Link_02117                  28.869
>>>>>>> b040755ab93617f94f1ab7a7036927f36e763e5a
>>>>>>> ebd46bdc835ac17077bb70c3b6f6db3a4ee81ecd
  Link_02118                  26.640
  Link_02123                   5.728
  Link_02124                   7.941
  Link_02125                  10.160
  Link_02126                  12.348
  Link_02127                  24.409
  Link_02128                  22.180
<<<<<<< HEAD
  Link_02129                  19.982
=======
<<<<<<< HEAD
  Link_02129                  19.982
=======
  Link_02129                  19.981
>>>>>>> b040755ab93617f94f1ab7a7036927f36e763e5a
>>>>>>> ebd46bdc835ac17077bb70c3b6f6db3a4ee81ecd
  Link_02130                  17.777
  Link_02131                  15.541
  Link_02132                  13.296
  Link_02133                  11.055
  Link_02134                 130.822
  Link_02135                 133.203
  Link_02136                 141.278
  Link_02137                   5.722
  Link_02138                 160.983
  Link_02139                 158.635
  Link_02140                 156.222
  Link_02141                 153.916
  Link_02142                 151.556
  Link_02143                 143.580
<<<<<<< HEAD
  Link_02383                   7.345
  Link_02384                   8.180
  Link_02385                  13.617
  Link_02386                  25.056
  Link_02387                  45.743
  Link_02388                  53.170
  Link_02389                  21.726
  Link_02390                  60.695
  Link_02391                  89.420
  Link_02392                  32.740
  Link_02393                 129.691
  Link_05459                  94.143
  Link_05460                 177.235
  Link_05461                 183.260
  Link_05462                 366.686
  Link_05463                 546.091
  Link_05464                  28.834
  Link_05496                1616.205
  Link_05662                  43.672
  Link_05663                   9.335
  Link_05664                  39.653
  Link_05665                 357.180
  Link_05677                 241.740
  Link_05678                  18.056
  Link_05720                 921.059
  Link_05721                 741.447
  Link_05722                  16.105
  Link_05723                  90.439
  Link_05725                  14.607
  Link_05726                 462.609
  Link_05727                   9.073
  Link_05728                 430.978
  Link_05729                 402.950
  Link_05730                 261.753
  Link_05731                 176.687
  Link_05732                 172.185
  Link_05742                  24.967
  Link_05743                 110.635
  Link_05744                 194.069
  Link_05752                 124.258
  Link_05753                   3.959
  Link_05754                  24.520
  Link_05791                   5.701
  Link_05812                 217.860
  Link_05813                 142.111
  Link_05814                 104.049
  Link_05815                 112.297
  Link_05816                  18.127
  Link_05817                  26.160
  Link_05818                  11.043
  Link_05983                  26.951
  Link_05984                  19.602
  Link_06039                   2.177
  Link_07220                 111.477
  Link_07221                 118.763
  Link_07222                 111.283
  Link_07230                 118.809
  Link_07231                 126.225
  Link_07233                 260.376
  Link_07234                 267.834
  Link_07235                 127.029
  Link_07270                  29.972
  Link_07271                  43.517
  Link_07274                  16.970
  Link_07277                  54.973
  Link_07278                  67.386
  Link_07295                  71.868
  Link_07296                  80.513
  Link_07297                 104.059
  Link_07303                  11.023
  Link_07306                  39.635
  Link_07321                  11.060
  Link_07464                  21.714
  Link_07578                  22.959
  Link_07579                 362.238
  Link_07580                 332.325
  Link_07687                  19.905
  Link_07865                  11.036
  Link_08891                  12.709
  Link_08912                  33.857
  Link1_to_ChengXi          1704.316
  Link2_to_ChengXi           369.147
  Link3_to_ChengXi           276.051
  Link_to_LaoDongLu          266.590
  Pump_ChengXi1             1080.587
  Pump_ChengXi2              568.439
  Pump_ChengXi3              402.871
  Pump_ChengXi4              402.871
  Pump_LaoDongLu1            158.028
  Pump_LaoDongLu2             75.536
  Pump_LaoDongLu3             62.083
  outfallpump               1568.433
  

  Analysis begun on:  Mon Aug 16 03:44:30 2021
  Analysis ended on:  Mon Aug 16 03:44:32 2021
=======
<<<<<<< HEAD
  Link_02383                   7.435
  Link_02384                   8.297
  Link_02385                  13.593
  Link_02386                  25.062
  Link_02387                  45.572
  Link_02388                  52.723
  Link_02389                  21.658
  Link_02390                  60.203
  Link_02391                  89.030
  Link_02392                  32.910
  Link_02393                 129.178
  Link_05459                  98.088
  Link_05460                 176.483
  Link_05461                 184.982
  Link_05462                 391.556
  Link_05463                 562.149
  Link_05464                  29.616
  Link_05496                1668.068
  Link_05662                  43.690
  Link_05663                   9.329
  Link_05664                  40.279
  Link_05665                 355.006
  Link_05677                 242.696
  Link_05678                  18.068
  Link_05720                 953.531
  Link_05721                 772.040
  Link_05722                  16.108
  Link_05723                  90.439
  Link_05725                  14.607
  Link_05726                 500.768
  Link_05727                   9.088
  Link_05728                 459.806
  Link_05729                 425.304
  Link_05730                 261.750
  Link_05731                 176.684
  Link_05732                 172.184
  Link_05742                  25.091
  Link_05743                 110.309
  Link_05744                 191.251
  Link_05752                 124.786
  Link_05753                   3.959
  Link_05754                  24.520
  Link_05791                   5.701
  Link_05812                 217.994
  Link_05813                 142.158
  Link_05814                 104.060
  Link_05815                 112.311
  Link_05816                  18.127
  Link_05817                  26.160
  Link_05818                  11.043
  Link_05983                  26.970
  Link_05984                  19.726
  Link_06039                   2.177
  Link_07220                  96.589
  Link_07221                 103.908
  Link_07222                  96.433
  Link_07230                 103.958
  Link_07231                 111.398
  Link_07233                 245.091
  Link_07234                 252.591
  Link_07235                 126.600
  Link_07270                  26.278
  Link_07271                  35.313
  Link_07274                  16.215
  Link_07277                  42.853
  Link_07278                  51.273
  Link_07295                  57.884
  Link_07296                  65.596
  Link_07297                  89.145
  Link_07303                  10.855
  Link_07306                  39.206
  Link_07321                  11.060
  Link_07464                  21.711
  Link_07578                  22.669
  Link_07579                 383.121
  Link_07580                 353.363
  Link_07687                  19.924
  Link_07865                  11.036
  Link_08891                  12.737
  Link_08912                  33.860
  Link1_to_ChengXi          1757.775
  Link2_to_ChengXi           366.974
  Link3_to_ChengXi           260.734
  Link_to_LaoDongLu          266.587
  Pump_ChengXi1              881.626
  Pump_ChengXi2              771.918
  Pump_ChengXi3              479.872
  Pump_ChengXi4              362.749
  Pump_LaoDongLu1            162.466
  Pump_LaoDongLu2             79.133
  Pump_LaoDongLu3             65.666
  outfallpump               2030.781
  

  Analysis begun on:  Mon Aug 16 03:26:42 2021
  Analysis ended on:  Mon Aug 16 03:26:44 2021
=======
  Link_02383                   7.333
  Link_02384                   8.291
  Link_02385                  13.807
  Link_02386                  25.057
  Link_02387                  45.882
  Link_02388                  53.196
  Link_02389                  21.762
  Link_02390                  60.773
  Link_02391                  89.860
  Link_02392                  32.882
  Link_02393                 130.078
  Link_05459                  93.868
  Link_05460                 172.440
  Link_05461                 176.927
  Link_05462                 378.288
  Link_05463                 566.369
  Link_05464                  30.008
  Link_05496                1676.081
  Link_05662                  43.635
  Link_05663                   9.297
  Link_05664                  39.088
  Link_05665                 359.317
  Link_05677                 241.139
  Link_05678                  18.056
  Link_05720                 960.072
  Link_05721                 777.243
  Link_05722                  16.130
  Link_05723                  90.439
  Link_05725                  14.607
  Link_05726                 483.182
  Link_05727                   9.095
  Link_05728                 447.182
  Link_05729                 412.790
  Link_05730                 261.749
  Link_05731                 176.681
  Link_05732                 172.184
  Link_05742                  25.044
  Link_05743                 111.189
  Link_05744                 197.998
  Link_05752                 116.454
  Link_05753                   3.959
  Link_05754                  24.520
  Link_05791                   5.701
  Link_05812                 217.869
  Link_05813                 142.133
  Link_05814                 104.020
  Link_05815                 112.271
  Link_05816                  18.127
  Link_05817                  26.160
  Link_05818                  11.043
  Link_05983                  26.978
  Link_05984                  19.617
  Link_06039                   2.177
  Link_07220                 106.286
  Link_07221                 113.629
  Link_07222                 106.888
  Link_07230                 114.414
  Link_07231                 121.825
  Link_07233                 256.294
  Link_07234                 263.774
  Link_07235                 127.337
  Link_07270                  28.667
  Link_07271                  39.572
  Link_07274                  17.033
  Link_07277                  53.080
  Link_07278                  62.401
  Link_07295                  66.722
  Link_07296                  75.282
  Link_07297                  98.888
  Link_07303                  10.985
  Link_07306                  38.941
  Link_07321                  11.060
  Link_07464                  21.693
  Link_07578                  23.546
  Link_07579                 372.183
  Link_07580                 339.307
  Link_07687                  19.905
  Link_07865                  11.036
  Link_08891                  12.702
  Link_08912                  33.850
  Link1_to_ChengXi          1763.562
  Link2_to_ChengXi           371.277
  Link3_to_ChengXi           271.945
  Link_to_LaoDongLu          266.585
  Pump_ChengXi1             1012.483
  Pump_ChengXi2              624.971
  Pump_ChengXi3              444.231
  Pump_ChengXi4              428.135
  Pump_LaoDongLu1            166.799
  Pump_LaoDongLu2             92.370
  Pump_LaoDongLu3             39.626
  outfallpump               1716.397
  

  Analysis begun on:  Tue Aug 17 21:44:41 2021
  Analysis ended on:  Tue Aug 17 21:44:43 2021
>>>>>>> b040755ab93617f94f1ab7a7036927f36e763e5a
>>>>>>> ebd46bdc835ac17077bb70c3b6f6db3a4ee81ecd
  Total elapsed time: 00:00:02