
  EPA STORM WATER MANAGEMENT MODEL - VERSION 5.1 (Build 5.3.0.dev0)
  --------------------------------------------------------------

  WARNING 04: minimum elevation drop used for Conduit Link_01776
  WARNING 04: minimum elevation drop used for Conduit Link_01779
  WARNING 04: minimum elevation drop used for Conduit Link_07234
  WARNING 02: maximum depth increased for Node Node_06087
  
  *********************************************************
  NOTE: The summary statistics displayed in this report are
  based on results found at every computational time step,  
  not just on results from each reporting time step.
  *********************************************************
  
  ****************
  Analysis Options
  ****************
  Flow Units ............... CMS
  Process Models:
    Rainfall/Runoff ........ YES
    RDII ................... NO
    Snowmelt ............... NO
    Groundwater ............ NO
    Flow Routing ........... YES
    Ponding Allowed ........ YES
    Water Quality .......... YES
  Infiltration Method ...... HORTON
  Flow Routing Method ...... DYNWAVE
  Surcharge Method ......... EXTRAN
  Starting Date ............ 01/02/2011 00:00:00
  Ending Date .............. 01/02/2011 06:00:00
  Antecedent Dry Days ...... 0.0
  Report Time Step ......... 00:15:00
  Wet Time Step ............ 00:05:00
  Dry Time Step ............ 01:00:00
  Routing Time Step ........ 60.00 sec
  Variable Time Step ....... YES
  Maximum Trials ........... 8
  Number of Threads ........ 1
  Head Tolerance ........... 0.001500 m
  
  
  **************************        Volume         Depth
  Runoff Quantity Continuity     hectare-m            mm
  **************************     ---------       -------
  Total Precipitation ......         1.130        39.500
  Evaporation Loss .........         0.000         0.000
  Infiltration Loss ........         0.042         1.470
  Surface Runoff ...........         1.090        38.098
  Final Storage ............         0.000         0.009
  Continuity Error (%) .....        -0.196
  
  
  **************************           COD
  Runoff Quality Continuity             kg
  **************************    ----------
  Initial Buildup ..........         0.000
  Surface Buildup ..........         0.000
  Wet Deposition ...........      2971.128
  Sweeping Removal .........         0.000
  Infiltration Loss ........       110.569
  BMP Removal ..............         0.000
  Surface Runoff ...........      2865.680
  Remaining Buildup ........         0.706
  Continuity Error (%) .....        -0.196
  
  
  **************************        Volume        Volume
  Flow Routing Continuity        hectare-m      10^6 ltr
  **************************     ---------     ---------
  Dry Weather Inflow .......         0.153         1.529
  Wet Weather Inflow .......         1.090        10.896
  Groundwater Inflow .......         0.000         0.000
  RDII Inflow ..............         0.000         0.000
  External Inflow ..........         0.000         0.000
<<<<<<< HEAD
  External Outflow .........         0.774         7.740
  Flooding Loss ............         0.700         7.000
  Evaporation Loss .........         0.000         0.000
  Exfiltration Loss ........         0.000         0.000
  Initial Stored Volume ....         0.077         0.773
  Final Stored Volume ......         0.151         1.514
  Continuity Error (%) .....       -23.161
=======
<<<<<<< HEAD
  External Outflow .........         0.769         7.691
  Flooding Loss ............         0.712         7.125
  Evaporation Loss .........         0.000         0.000
  Exfiltration Loss ........         0.000         0.000
  Initial Stored Volume ....         0.077         0.773
  Final Stored Volume ......         0.148         1.481
  Continuity Error (%) .....       -23.475
=======
  External Outflow .........         0.764         7.636
  Flooding Loss ............         0.702         7.017
  Evaporation Loss .........         0.000         0.000
  Exfiltration Loss ........         0.000         0.000
  Initial Stored Volume ....         0.077         0.773
  Final Stored Volume ......         0.165         1.648
  Continuity Error (%) .....       -23.506
>>>>>>> b040755ab93617f94f1ab7a7036927f36e763e5a
>>>>>>> ebd46bdc835ac17077bb70c3b6f6db3a4ee81ecd
  
  
  **************************           COD
  Quality Routing Continuity            kg
  **************************    ----------
  Dry Weather Inflow .......       845.606
  Wet Weather Inflow .......      2865.664
  Groundwater Inflow .......         0.000
  RDII Inflow ..............         0.000
  External Inflow ..........         0.000
<<<<<<< HEAD
  External Outflow .........      1850.847
  Flooding Loss ............      1817.204
  Exfiltration Loss ........         0.000
  Mass Reacted .............         0.000
  Initial Stored Mass ......       427.257
  Final Stored Mass ........       335.489
  Continuity Error (%) .....         3.262
=======
<<<<<<< HEAD
  External Outflow .........      2180.214
  Flooding Loss ............      1821.889
  Exfiltration Loss ........         0.000
  Mass Reacted .............         0.000
  Initial Stored Mass ......       427.257
  Final Stored Mass ........       310.979
  Continuity Error (%) .....        -4.218
=======
  External Outflow .........      1919.778
  Flooding Loss ............      1813.019
  Exfiltration Loss ........         0.000
  Mass Reacted .............         0.000
  Initial Stored Mass ......       427.257
  Final Stored Mass ........       334.018
  Continuity Error (%) .....         1.733
>>>>>>> b040755ab93617f94f1ab7a7036927f36e763e5a
>>>>>>> ebd46bdc835ac17077bb70c3b6f6db3a4ee81ecd
  
  
  *************************
  Highest Continuity Errors
  *************************
<<<<<<< HEAD
  Node Node_04713 (-77.75%)
  Node Node_07272 (-61.25%)
  Node Node_04715 (-34.37%)
  Node Node_04714 (-16.65%)
  Node Node_04711 (-16.04%)
=======
<<<<<<< HEAD
  Node Node_04713 (-74.47%)
  Node Node_07272 (-52.80%)
  Node Node_04714 (-25.77%)
  Node Node_04715 (-17.75%)
  Node Node_04711 (-16.27%)
=======
  Node Node_04713 (-69.82%)
  Node Node_07272 (-66.72%)
  Node Node_04715 (-26.16%)
  Node Node_04714 (-21.49%)
  Node Node_04711 (-17.78%)
>>>>>>> b040755ab93617f94f1ab7a7036927f36e763e5a
>>>>>>> ebd46bdc835ac17077bb70c3b6f6db3a4ee81ecd
  
  
  ***************************
  Time-Step Critical Elements
  ***************************
<<<<<<< HEAD
  Link Link_01778 (40.67%)
  Link Link_02129 (35.95%)
  Link Link_01558 (12.66%)
  Link Link_05464 (2.29%)
  Link Link_01780 (1.50%)
=======
<<<<<<< HEAD
  Link Link_02129 (42.71%)
  Link Link_01778 (40.39%)
  Link Link_01558 (5.39%)
  Link Link_05464 (2.06%)
  Link Link_01780 (1.62%)
=======
  Link Link_02129 (48.15%)
  Link Link_01778 (40.65%)
  Link Link_05464 (1.88%)
  Link Link_01780 (1.48%)
>>>>>>> b040755ab93617f94f1ab7a7036927f36e763e5a
>>>>>>> ebd46bdc835ac17077bb70c3b6f6db3a4ee81ecd
  
  
  ********************************
  Highest Flow Instability Indexes
  ********************************
<<<<<<< HEAD
  Link Link_01558 (73)
  Link Link_01787 (71)
  Link Link_01778 (68)
  Link Link_01777 (60)
  Link Link_01780 (58)
=======
<<<<<<< HEAD
  Link Link_01787 (73)
  Link Link_01558 (73)
  Link Link_01778 (67)
  Link Link_01777 (59)
  Link Link_01800 (59)
=======
  Link Link_01558 (75)
  Link Link_01787 (72)
  Link Link_01778 (68)
  Link Link_01777 (61)
  Link Link_01780 (59)
>>>>>>> b040755ab93617f94f1ab7a7036927f36e763e5a
>>>>>>> ebd46bdc835ac17077bb70c3b6f6db3a4ee81ecd
  
  
  *************************
  Routing Time Step Summary
  *************************
  Minimum Time Step           :     5.00 sec
  Average Time Step           :     5.00 sec
  Maximum Time Step           :     5.00 sec
  Percent in Steady State     :     0.00
<<<<<<< HEAD
  Average Iterations per Step :     6.41
  Percent Not Converging      :    66.85
=======
<<<<<<< HEAD
  Average Iterations per Step :     6.41
  Percent Not Converging      :    67.36
=======
  Average Iterations per Step :     6.39
  Percent Not Converging      :    65.72
>>>>>>> b040755ab93617f94f1ab7a7036927f36e763e5a
>>>>>>> ebd46bdc835ac17077bb70c3b6f6db3a4ee81ecd
  
  
  ***************************
  Subcatchment Runoff Summary
  ***************************
  
  ------------------------------------------------------------------------------------------------------------------------------
                            Total      Total      Total      Total     Imperv       Perv      Total       Total     Peak  Runoff
                           Precip      Runon       Evap      Infil     Runoff     Runoff     Runoff      Runoff   Runoff   Coeff
  Subcatchment                 mm         mm         mm         mm         mm         mm         mm    10^6 ltr      CMS
  ------------------------------------------------------------------------------------------------------------------------------
  2707                      39.50       0.00       0.00       1.47       9.88      28.22      38.09        0.04     0.01   0.964
  2708                      39.50       0.00       0.00       1.47       9.88      28.22      38.09        0.04     0.01   0.964
  2709                      39.50       0.00       0.00       1.47       9.88      28.22      38.09        0.04     0.01   0.964
  2710                      39.50       0.00       0.00       1.47       9.88      28.22      38.09        0.04     0.01   0.964
  2712                      39.50       0.00       0.00       1.47       9.88      28.22      38.09        0.04     0.01   0.964
  2713                      39.50       0.00       0.00       1.47       9.88      28.22      38.09        0.04     0.01   0.964
  2714                      39.50       0.00       0.00       1.47       9.88      28.22      38.09        0.04     0.01   0.964
  2715                      39.50       0.00       0.00       1.47       9.88      28.22      38.09        0.04     0.01   0.964
  2716                      39.50       0.00       0.00       1.47       9.88      28.22      38.09        0.04     0.01   0.964
  2717                      39.50       0.00       0.00       1.47       9.88      28.22      38.09        0.04     0.01   0.964
  2718                      39.50       0.00       0.00       1.47       9.88      28.22      38.09        0.04     0.01   0.964
  2719                      39.50       0.00       0.00       1.47       9.88      28.22      38.09        0.04     0.01   0.964
  2721                      39.50       0.00       0.00       1.47       9.88      28.22      38.09        0.04     0.01   0.964
  2722                      39.50       0.00       0.00       1.47       9.88      28.22      38.09        0.04     0.01   0.964
  2723                      39.50       0.00       0.00       1.47       9.88      28.22      38.09        0.04     0.01   0.964
  2724                      39.50       0.00       0.00       1.47       9.88      28.22      38.09        0.04     0.01   0.964
  2725                      39.50       0.00       0.00       1.47       9.88      28.22      38.09        0.04     0.01   0.964
  2726                      39.50       0.00       0.00       1.47       9.88      28.22      38.09        0.04     0.01   0.964
  2727                      39.50       0.00       0.00       1.47       9.88      28.22      38.09        0.04     0.01   0.964
  2728                      39.50       0.00       0.00       1.47       9.88      28.22      38.09        0.04     0.01   0.964
  2729                      39.50       0.00       0.00       1.47       9.88      28.22      38.09        0.04     0.01   0.964
  2730                      39.50       0.00       0.00       1.47       9.88      28.22      38.09        0.04     0.01   0.964
  2731                      39.50       0.00       0.00       1.47       9.88      28.22      38.09        0.04     0.01   0.964
  2732                      39.50       0.00       0.00       1.47       9.88      28.22      38.09        0.04     0.01   0.964
  2733                      39.50       0.00       0.00       1.47       9.88      28.22      38.09        0.04     0.01   0.964
  2734                      39.50       0.00       0.00       1.47       9.88      28.22      38.09        0.04     0.01   0.964
  2735                      39.50       0.00       0.00       1.47       9.88      28.22      38.09        0.04     0.01   0.964
  2736                      39.50       0.00       0.00       1.47       9.88      28.22      38.09        0.04     0.01   0.964
  2737                      39.50       0.00       0.00       1.47       9.88      28.22      38.09        0.04     0.01   0.964
  2738                      39.50       0.00       0.00       1.47       9.88      28.22      38.09        0.04     0.01   0.964
  2739                      39.50       0.00       0.00       1.47       9.88      28.22      38.09        0.04     0.01   0.964
  2740                      39.50       0.00       0.00       1.47       9.88      28.22      38.09        0.04     0.01   0.964
  2741                      39.50       0.00       0.00       1.47       9.88      28.22      38.09        0.04     0.01   0.964
  2742                      39.50       0.00       0.00       1.47       9.88      28.22      38.09        0.04     0.01   0.964
  2743                      39.50       0.00       0.00       1.47       9.88      28.22      38.09        0.04     0.01   0.964
  2744                      39.50       0.00       0.00       1.47       9.88      28.22      38.09        0.04     0.01   0.964
  2745                      39.50       0.00       0.00       1.47       9.88      28.22      38.09        0.04     0.01   0.964
  2746                      39.50       0.00       0.00       1.47       9.88      28.22      38.09        0.04     0.01   0.964
  2747                      39.50       0.00       0.00       1.47       9.88      28.22      38.09        0.04     0.01   0.964
  2748                      39.50       0.00       0.00       1.47       9.88      28.22      38.09        0.04     0.01   0.964
  2749                      39.50       0.00       0.00       1.47       9.88      28.22      38.09        0.04     0.01   0.964
  2750                      39.50       0.00       0.00       1.47       9.88      28.22      38.09        0.04     0.01   0.964
  2751                      39.50       0.00       0.00       1.47       9.88      28.22      38.09        0.04     0.01   0.964
  2752                      39.50       0.00       0.00       1.47       9.88      28.22      38.09        0.04     0.01   0.964
  2753                      39.50       0.00       0.00       1.47       9.88      28.22      38.09        0.04     0.01   0.964
  2754                      39.50       0.00       0.00       1.47       9.88      28.22      38.09        0.04     0.01   0.964
  2755                      39.50       0.00       0.00       1.47       9.88      28.22      38.09        0.04     0.01   0.964
  2756                      39.50       0.00       0.00       1.47       9.88      28.22      38.09        0.04     0.01   0.964
  2964                      39.50       0.00       0.00       1.47       9.88      28.22      38.09        0.04     0.01   0.964
  2969                      39.50       0.00       0.00       1.47       9.88      28.22      38.09        0.04     0.01   0.964
  2970                      39.50       0.00       0.00       1.47       9.88      28.22      38.09        0.04     0.01   0.964
  2974                      39.50       0.00       0.00       1.47       9.88      28.22      38.09        0.04     0.01   0.964
  2975                      39.50       0.00       0.00       1.47       9.88      28.22      38.09        0.04     0.01   0.964
  2976                      39.50       0.00       0.00       1.47       9.88      28.22      38.09        0.04     0.01   0.964
  2977                      39.50       0.00       0.00       1.47       9.88      28.22      38.09        0.04     0.01   0.964
  2978                      39.50       0.00       0.00       1.47       9.88      28.22      38.09        0.04     0.01   0.964
  2979                      39.50       0.00       0.00       1.47       9.88      28.22      38.09        0.04     0.01   0.964
  2980                      39.50       0.00       0.00       1.47       9.88      28.22      38.09        0.04     0.01   0.964
  2981                      39.50       0.00       0.00       1.47       9.88      28.22      38.09        0.04     0.01   0.964
  2982                      39.50       0.00       0.00       1.47       9.88      28.22      38.09        0.04     0.01   0.964
  2984                      39.50       0.00       0.00       1.47       9.88      28.22      38.09        0.04     0.01   0.964
  2985                      39.50       0.00       0.00       1.47       9.88      28.22      38.09        0.04     0.01   0.964
  3925                      39.50       0.00       0.00       1.47       9.88      28.22      38.09        0.04     0.01   0.964
  3926                      39.50       0.00       0.00       1.47       9.88      28.22      38.09        0.04     0.01   0.964
  3927                      39.50       0.00       0.00       1.47       9.88      28.22      38.09        0.04     0.01   0.964
  3928                      39.50       0.00       0.00       1.47       9.88      28.22      38.09        0.04     0.01   0.964
  3929                      39.50       0.00       0.00       1.47       9.88      28.22      38.09        0.04     0.01   0.964
  3930                      39.50       0.00       0.00       1.47       9.88      28.22      38.09        0.04     0.01   0.964
  3931                      39.50       0.00       0.00       1.47       9.88      28.22      38.09        0.04     0.01   0.964
  3932                      39.50       0.00       0.00       1.47       9.88      28.22      38.09        0.04     0.01   0.964
  3933                      39.50       0.00       0.00       1.47       9.88      28.22      38.09        0.04     0.01   0.964
  3934                      39.50       0.00       0.00       1.47       9.88      28.22      38.09        0.04     0.01   0.964
  3935                      39.50       0.00       0.00       1.47       9.88      28.22      38.09        0.04     0.01   0.964
  3936                      39.50       0.00       0.00       1.47       9.88      28.22      38.09        0.04     0.01   0.964
  3937                      39.50       0.00       0.00       1.47       9.88      28.22      38.09        0.04     0.01   0.964
  3938                      39.50       0.00       0.00       1.47       9.88      28.22      38.09        0.04     0.01   0.964
  3939                      39.50       0.00       0.00       1.47       9.88      28.22      38.09        0.04     0.01   0.964
  3940                      39.50       0.00       0.00       1.47       9.88      28.22      38.09        0.04     0.01   0.964
  3941                      39.50       0.00       0.00       1.47       9.88      28.22      38.09        0.04     0.01   0.964
  3942                      39.50       0.00       0.00       1.47       9.88      28.22      38.09        0.04     0.01   0.964
  3943                      39.50       0.00       0.00       1.47       9.88      28.22      38.09        0.04     0.01   0.964
  3944                      39.50       0.00       0.00       1.47       9.88      28.22      38.09        0.04     0.01   0.964
  3945                      39.50       0.00       0.00       1.47       9.88      28.22      38.09        0.04     0.01   0.964
  3946                      39.50       0.00       0.00       1.47       9.88      28.22      38.09        0.04     0.01   0.964
  3947                      39.50       0.00       0.00       1.47       9.88      28.22      38.09        0.04     0.01   0.964
  3948                      39.50       0.00       0.00       1.47       9.88      28.22      38.09        0.04     0.01   0.964
  3949                      39.50       0.00       0.00       1.47       9.88      28.22      38.09        0.04     0.01   0.964
  3950                      39.50       0.00       0.00       1.47       9.88      28.22      38.09        0.04     0.01   0.964
  3951                      39.50       0.00       0.00       1.47       9.88      28.22      38.09        0.04     0.01   0.964
  3952                      39.50       0.00       0.00       1.47       9.88      28.22      38.09        0.04     0.01   0.964
  3953                      39.50       0.00       0.00       1.47       9.88      28.22      38.09        0.04     0.01   0.964
  3954                      39.50       0.00       0.00       1.47       9.88      28.22      38.09        0.04     0.01   0.964
  3955                      39.50       0.00       0.00       1.47       9.88      28.22      38.09        0.04     0.01   0.964
  3956                      39.50       0.00       0.00       1.47       9.88      28.22      38.09        0.04     0.01   0.964
  4032                      39.50       0.00       0.00       1.47       9.88      28.22      38.09        0.04     0.01   0.964
  4033                      39.50       0.00       0.00       1.47       9.88      28.22      38.09        0.04     0.01   0.964
  4041                      39.50       0.00       0.00       1.47       9.88      28.22      38.09        0.04     0.01   0.964
  4051                      39.50       0.00       0.00       1.47       9.88      28.22      38.09        0.04     0.01   0.964
  4055                      39.50       0.00       0.00       1.47       9.88      28.22      38.09        0.04     0.01   0.964
  4056                      39.50       0.00       0.00       1.47       9.88      28.22      38.09        0.04     0.01   0.964
  4058                      39.50       0.00       0.00       1.47       9.88      28.22      38.09        0.04     0.01   0.964
  4385                      39.50       0.00       0.00       1.47       9.88      28.22      38.09        0.04     0.01   0.964
  4386                      39.50       0.00       0.00       1.47       9.88      28.22      38.09        0.04     0.01   0.964
  4387                      39.50       0.00       0.00       1.47       9.88      28.22      38.09        0.04     0.01   0.964
  4388                      39.50       0.00       0.00       1.47       9.88      28.22      38.09        0.04     0.01   0.964
  4389                      39.50       0.00       0.00       1.47       9.88      28.22      38.09        0.04     0.01   0.964
  4390                      39.50       0.00       0.00       1.47       9.88      28.22      38.09        0.04     0.01   0.964
  4391                      39.50       0.00       0.00       1.47       9.88      28.22      38.09        0.04     0.01   0.964
  4392                      39.50       0.00       0.00       1.47       9.88      28.22      38.09        0.04     0.01   0.964
  4393                      39.50       0.00       0.00       1.47       9.88      28.22      38.09        0.04     0.01   0.964
  4394                      39.50       0.00       0.00       1.47       9.88      28.22      38.09        0.04     0.01   0.964
  4395                      39.50       0.00       0.00       1.47       9.88      28.22      38.09        0.04     0.01   0.964
  4396                      39.50       0.00       0.00       1.47       9.88      28.22      38.09        0.04     0.01   0.964
  4397                      39.50       0.00       0.00       1.47       9.88      28.22      38.09        0.04     0.01   0.964
  4398                      39.50       0.00       0.00       1.47       9.88      28.22      38.09        0.04     0.01   0.964
  4429                      39.50       0.00       0.00       1.47       9.88      28.22      38.09        0.04     0.01   0.964
  4430                      39.50       0.00       0.00       1.47       9.88      28.22      38.09        0.04     0.01   0.964
  4431                      39.50       0.00       0.00       1.47       9.88      28.22      38.09        0.04     0.01   0.964
  4432                      39.50       0.00       0.00       1.47       9.88      28.22      38.09        0.04     0.01   0.964
  4433                      39.50       0.00       0.00       1.47       9.88      28.22      38.09        0.04     0.01   0.964
  4434                      39.50       0.00       0.00       1.47       9.88      28.22      38.09        0.04     0.01   0.964
  4435                      39.50       0.00       0.00       1.47       9.88      28.22      38.09        0.04     0.01   0.964
  4436                      39.50       0.00       0.00       1.47       9.88      28.22      38.09        0.04     0.01   0.964
  4437                      39.50       0.00       0.00       1.47       9.88      28.22      38.09        0.04     0.01   0.964
  4438                      39.50       0.00       0.00       1.47       9.88      28.22      38.09        0.04     0.01   0.964
  4439                      39.50       0.00       0.00       1.47       9.88      28.22      38.09        0.04     0.01   0.964
  4440                      39.50       0.00       0.00       1.47       9.88      28.22      38.09        0.04     0.01   0.964
  4441                      39.50       0.00       0.00       1.47       9.88      28.22      38.09        0.04     0.01   0.964
  4442                      39.50       0.00       0.00       1.47       9.88      28.22      38.09        0.04     0.01   0.964
  4443                      39.50       0.00       0.00       1.47       9.88      28.22      38.09        0.04     0.01   0.964
  4444                      39.50       0.00       0.00       1.47       9.88      28.22      38.09        0.04     0.01   0.964
  4445                      39.50       0.00       0.00       1.47       9.88      28.22      38.09        0.04     0.01   0.964
  4446                      39.50       0.00       0.00       1.47       9.88      28.22      38.09        0.04     0.01   0.964
  4447                      39.50       0.00       0.00       1.47       9.88      28.22      38.09        0.04     0.01   0.964
  4448                      39.50       0.00       0.00       1.47       9.88      28.22      38.09        0.04     0.01   0.964
  4449                      39.50       0.00       0.00       1.47       9.88      28.22      38.09        0.04     0.01   0.964
  4450                      39.50       0.00       0.00       1.47       9.88      28.22      38.09        0.04     0.01   0.964
  4451                      39.50       0.00       0.00       1.47       9.88      28.22      38.09        0.04     0.01   0.964
  4452                      39.50       0.00       0.00       1.47       9.88      28.22      38.09        0.04     0.01   0.964
  4453                      39.50       0.00       0.00       1.47       9.88      28.22      38.09        0.04     0.01   0.964
  4454                      39.50       0.00       0.00       1.47       9.88      28.22      38.09        0.04     0.01   0.964
  4462                      39.50       0.00       0.00       1.47       9.88      28.22      38.09        0.04     0.01   0.964
  4463                      39.50       0.00       0.00       1.47       9.88      28.22      38.09        0.04     0.01   0.964
  4563                      39.50       0.00       0.00       1.47       9.88      28.22      38.09        0.04     0.01   0.964
  4564                      39.50       0.00       0.00       1.47       9.88      28.22      38.09        0.04     0.01   0.964
  4565                      39.50       0.00       0.00       1.47       9.88      28.22      38.09        0.04     0.01   0.964
  4566                      39.50       0.00       0.00       1.47       9.88      28.22      38.09        0.04     0.01   0.964
  4567                      39.50       0.00       0.00       1.47       9.88      28.22      38.09        0.04     0.01   0.964
  4568                      39.50       0.00       0.00       1.47       9.88      28.22      38.09        0.04     0.01   0.964
  4569                      39.50       0.00       0.00       1.47       9.88      28.22      38.09        0.04     0.01   0.964
  4570                      39.50       0.00       0.00       1.47       9.88      28.22      38.09        0.04     0.01   0.964
  4571                      39.50       0.00       0.00       1.47       9.88      28.22      38.09        0.04     0.01   0.964
  4572                      39.50       0.00       0.00       1.47       9.88      28.22      38.09        0.04     0.01   0.964
  4573                      39.50       0.00       0.00       1.47       9.88      28.22      38.09        0.04     0.01   0.964
  4574                      39.50       0.00       0.00       1.47       9.88      28.22      38.09        0.04     0.01   0.964
  4575                      39.50       0.00       0.00       1.47       9.88      28.22      38.09        0.04     0.01   0.964
  4576                      39.50       0.00       0.00       1.47       9.88      28.22      38.09        0.04     0.01   0.964
  4577                      39.50       0.00       0.00       1.47       9.88      28.22      38.09        0.04     0.01   0.964
  4578                      39.50       0.00       0.00       1.47       9.88      28.22      38.09        0.04     0.01   0.964
  4579                      39.50       0.00       0.00       1.47       9.88      28.22      38.09        0.04     0.01   0.964
  4580                      39.50       0.00       0.00       1.47       9.88      28.22      38.09        0.04     0.01   0.964
  4581                      39.50       0.00       0.00       1.47       9.88      28.22      38.09        0.04     0.01   0.964
  4624                      39.50       0.00       0.00       1.47       9.88      28.22      38.09        0.04     0.01   0.964
  4625                      39.50       0.00       0.00       1.47       9.88      28.22      38.09        0.04     0.01   0.964
  4644                      39.50       0.00       0.00       1.47       9.88      28.22      38.09        0.04     0.01   0.964
  4645                      39.50       0.00       0.00       1.47       9.88      28.22      38.09        0.04     0.01   0.964
  4646                      39.50       0.00       0.00       1.47       9.88      28.22      38.09        0.04     0.01   0.964
  4679                      39.50       0.00       0.00       1.47       9.88      28.22      38.09        0.04     0.01   0.964
  4680                      39.50       0.00       0.00       1.47       9.88      28.22      38.09        0.04     0.01   0.964
  4681                      39.50       0.00       0.00       1.47       9.88      28.22      38.09        0.04     0.01   0.964
  4682                      39.50       0.00       0.00       1.47       9.88      28.22      38.09        0.04     0.01   0.964
  4683                      39.50       0.00       0.00       1.47       9.88      28.22      38.09        0.04     0.01   0.964
  4711                      39.50       0.00       0.00       1.47       9.88      28.22      38.09        0.04     0.01   0.964
  4712                      39.50       0.00       0.00       1.47       9.88      28.22      38.09        0.04     0.01   0.964
  4713                      39.50       0.00       0.00       1.47       9.88      28.22      38.09        0.04     0.01   0.964
  4714                      39.50       0.00       0.00       1.47       9.88      28.22      38.09        0.04     0.01   0.964
  4715                      39.50       0.00       0.00       1.47       9.88      28.22      38.09        0.04     0.01   0.964
  4716                      39.50       0.00       0.00       1.47       9.88      28.22      38.09        0.04     0.01   0.964
  4717                      39.50       0.00       0.00       1.47       9.88      28.22      38.09        0.04     0.01   0.964
  4718                      39.50       0.00       0.00       1.47       9.88      28.22      38.09        0.04     0.01   0.964
  4722                      39.50       0.00       0.00       1.47       9.88      28.22      38.09        0.04     0.01   0.964
  4760                      39.50       0.00       0.00       1.47       9.88      28.22      38.09        0.04     0.01   0.964
  4761                      39.50       0.00       0.00       1.47       9.88      28.22      38.09        0.04     0.01   0.964
  4765                      39.50       0.00       0.00       1.47       9.88      28.22      38.09        0.04     0.01   0.964
  4766                      39.50       0.00       0.00       1.47       9.88      28.22      38.09        0.04     0.01   0.964
  4767                      39.50       0.00       0.00       1.47       9.88      28.22      38.09        0.04     0.01   0.964
  4768                      39.50       0.00       0.00       1.47       9.88      28.22      38.09        0.04     0.01   0.964
  4769                      39.50       0.00       0.00       1.47       9.88      28.22      38.09        0.04     0.01   0.964
  4855                      39.50       0.00       0.00       1.47       9.88      28.22      38.09        0.04     0.01   0.964
  4856                      39.50       0.00       0.00       1.47       9.88      28.22      38.09        0.04     0.01   0.964
  5284                      39.50       0.00       0.00       1.47       9.88      28.22      38.09        0.04     0.01   0.964
  5285                      39.50       0.00       0.00       1.47       9.88      28.22      38.09        0.04     0.01   0.964
  5286                      39.50       0.00       0.00       1.47       9.88      28.22      38.09        0.04     0.01   0.964
  5287                      39.50       0.00       0.00       1.47       9.88      28.22      38.09        0.04     0.01   0.964
  5288                      39.50       0.00       0.00       1.47       9.88      28.22      38.09        0.04     0.01   0.964
  5289                      39.50       0.00       0.00       1.47       9.88      28.22      38.09        0.04     0.01   0.964
  5290                      39.50       0.00       0.00       1.47       9.88      28.22      38.09        0.04     0.01   0.964
  5291                      39.50       0.00       0.00       1.47       9.88      28.22      38.09        0.04     0.01   0.964
  5292                      39.50       0.00       0.00       1.47       9.88      28.22      38.09        0.04     0.01   0.964
  5293                      39.50       0.00       0.00       1.47       9.88      28.22      38.09        0.04     0.01   0.964
  5294                      39.50       0.00       0.00       1.47       9.88      28.22      38.09        0.04     0.01   0.964
  5295                      39.50       0.00       0.00       1.47       9.88      28.22      38.09        0.04     0.01   0.964
  5296                      39.50       0.00       0.00       1.47       9.88      28.22      38.09        0.04     0.01   0.964
  5297                      39.50       0.00       0.00       1.47       9.88      28.22      38.09        0.04     0.01   0.964
  5298                      39.50       0.00       0.00       1.47       9.88      28.22      38.09        0.04     0.01   0.964
  5299                      39.50       0.00       0.00       1.47       9.88      28.22      38.09        0.04     0.01   0.964
  5300                      39.50       0.00       0.00       1.47       9.88      28.22      38.09        0.04     0.01   0.964
  5301                      39.50       0.00       0.00       1.47       9.88      28.22      38.09        0.04     0.01   0.964
  5302                      39.50       0.00       0.00       1.47       9.88      28.22      38.09        0.04     0.01   0.964
  5303                      39.50       0.00       0.00       1.47       9.88      28.22      38.09        0.04     0.01   0.964
  5304                      39.50       0.00       0.00       1.47       9.88      28.22      38.09        0.04     0.01   0.964
  5305                      39.50       0.00       0.00       1.47       9.88      28.22      38.09        0.04     0.01   0.964
  5306                      39.50       0.00       0.00       1.47       9.88      28.22      38.09        0.04     0.01   0.964
  5307                      39.50       0.00       0.00       1.47       9.88      28.22      38.09        0.04     0.01   0.964
  5308                      39.50       0.00       0.00       1.47       9.88      28.22      38.09        0.04     0.01   0.964
  5309                      39.50       0.00       0.00       1.47       9.88      28.22      38.09        0.04     0.01   0.964
  5310                      39.50       0.00       0.00       1.47       9.88      28.22      38.09        0.04     0.01   0.964
  5311                      39.50       0.00       0.00       1.47       9.88      28.22      38.09        0.04     0.01   0.964
  5312                      39.50       0.00       0.00       1.47       9.88      28.22      38.09        0.04     0.01   0.964
  5313                      39.50       0.00       0.00       1.47       9.88      28.22      38.09        0.04     0.01   0.964
  5314                      39.50       0.00       0.00       1.47       9.88      28.22      38.09        0.04     0.01   0.964
  5315                      39.50       0.00       0.00       1.47       9.88      28.22      38.09        0.04     0.01   0.964
  5316                      39.50       0.00       0.00       1.47       9.88      28.22      38.09        0.04     0.01   0.964
  5317                      39.50       0.00       0.00       1.47       9.88      28.22      38.09        0.04     0.01   0.964
  5318                      39.50       0.00       0.00       1.47       9.88      28.22      38.09        0.04     0.01   0.964
  5319                      39.50       0.00       0.00       1.47       9.88      28.22      38.09        0.04     0.01   0.964
  5320                      39.50       0.00       0.00       1.47       9.88      28.22      38.09        0.04     0.01   0.964
  5321                      39.50       0.00       0.00       1.47       9.88      28.22      38.09        0.04     0.01   0.964
  5322                      39.50       0.00       0.00       1.47       9.88      28.22      38.09        0.04     0.01   0.964
  5323                      39.50       0.00       0.00       1.47       9.88      28.22      38.09        0.04     0.01   0.964
  5324                      39.50       0.00       0.00       1.47       9.88      28.22      38.09        0.04     0.01   0.964
  5325                      39.50       0.00       0.00       1.47       9.88      28.22      38.09        0.04     0.01   0.964
  5326                      39.50       0.00       0.00       1.47       9.88      28.22      38.09        0.04     0.01   0.964
  5327                      39.50       0.00       0.00       1.47       9.88      28.22      38.09        0.04     0.01   0.964
  5328                      39.50       0.00       0.00       1.47       9.88      28.22      38.09        0.04     0.01   0.964
  5329                      39.50       0.00       0.00       1.47       9.88      28.22      38.09        0.04     0.01   0.964
  5330                      39.50       0.00       0.00       1.47       9.88      28.22      38.09        0.04     0.01   0.964
  5333                      39.50       0.00       0.00       1.47       9.88      28.22      38.09        0.04     0.01   0.964
  5334                      39.50       0.00       0.00       1.47       9.88      28.22      38.09        0.04     0.01   0.964
  6040                      39.50       0.00       0.00       1.47       9.88      28.22      38.09        0.04     0.01   0.964
  6041                      39.50       0.00       0.00       1.47       9.88      28.22      38.09        0.04     0.01   0.964
  6162                      39.50       0.00       0.00       1.47       9.88      28.22      38.09        0.04     0.01   0.964
  7207                      39.50       0.00       0.00       1.47       9.88      28.22      38.09        0.04     0.01   0.964
  7208                      39.50       0.00       0.00       1.47       9.88      28.22      38.09        0.04     0.01   0.964
  7213                      39.50       0.00       0.00       1.47       9.88      28.22      38.09        0.04     0.01   0.964
  7214                      39.50       0.00       0.00       1.47       9.88      28.22      38.09        0.04     0.01   0.964
  7219                      39.50       0.00       0.00       1.47       9.88      28.22      38.09        0.04     0.01   0.964
  7220                      39.50       0.00       0.00       1.47       9.88      28.22      38.09        0.04     0.01   0.964
  7221                      39.50       0.00       0.00       1.47       9.88      28.22      38.09        0.04     0.01   0.964
  7225                      39.50       0.00       0.00       1.47       9.88      28.22      38.09        0.04     0.01   0.964
  7229                      39.50       0.00       0.00       1.47       9.88      28.22      38.09        0.04     0.01   0.964
  7231                      39.50       0.00       0.00       1.47       9.88      28.22      38.09        0.04     0.01   0.964
  7268                      39.50       0.00       0.00       1.47       9.88      28.22      38.09        0.04     0.01   0.964
  7269                      39.50       0.00       0.00       1.47       9.88      28.22      38.09        0.04     0.01   0.964
  7271                      39.50       0.00       0.00       1.47       9.88      28.22      38.09        0.04     0.01   0.964
  7272                      39.50       0.00       0.00       1.47       9.88      28.22      38.09        0.04     0.01   0.964
  7273                      39.50       0.00       0.00       1.47       9.88      28.22      38.09        0.04     0.01   0.964
  7433                      39.50       0.00       0.00       1.47       9.88      28.22      38.09        0.04     0.01   0.964
  7434                      39.50       0.00       0.00       1.47       9.88      28.22      38.09        0.04     0.01   0.964
  7544                      39.50       0.00       0.00       1.47       9.88      28.22      38.09        0.04     0.01   0.964
  7545                      39.50       0.00       0.00       1.47       9.88      28.22      38.09        0.04     0.01   0.964
  8737                      39.50       0.00       0.00       1.47       9.88      28.22      38.09        0.04     0.01   0.964
  8818                      39.50       0.00       0.00       1.47       9.88      28.22      38.09        0.04     0.01   0.964
  9942                      39.50       0.00       0.00       1.47       9.88      28.22      38.09        0.04     0.01   0.964
  9957                      39.50       0.00       0.00       1.47       9.88      28.22      38.09        0.04     0.01   0.964
  4399                      39.50       0.00       0.00       1.41       9.87      28.27      38.14        0.01     0.00   0.966
  4400                      39.50       0.00       0.00       1.41       9.87      28.27      38.14        0.01     0.00   0.966
  4401                      39.50       0.00       0.00       1.41       9.87      28.27      38.14        0.01     0.00   0.966
  4402                      39.50       0.00       0.00       1.41       9.87      28.27      38.14        0.01     0.00   0.966
  4403                      39.50       0.00       0.00       1.41       9.87      28.27      38.14        0.01     0.00   0.966
  4404                      39.50       0.00       0.00       1.41       9.87      28.27      38.14        0.01     0.00   0.966
  4405                      39.50       0.00       0.00       1.41       9.87      28.27      38.14        0.01     0.00   0.966
  4406                      39.50       0.00       0.00       1.41       9.87      28.27      38.14        0.01     0.00   0.966
  4407                      39.50       0.00       0.00       1.41       9.87      28.27      38.14        0.01     0.00   0.966
  4408                      39.50       0.00       0.00       1.41       9.87      28.27      38.14        0.01     0.00   0.966
  4409                      39.50       0.00       0.00       1.41       9.87      28.27      38.14        0.01     0.00   0.966
  4410                      39.50       0.00       0.00       1.41       9.87      28.27      38.14        0.01     0.00   0.966
  4411                      39.50       0.00       0.00       1.41       9.87      28.27      38.14        0.01     0.00   0.966
  4412                      39.50       0.00       0.00       1.41       9.87      28.27      38.14        0.01     0.00   0.966
  4423                      39.50       0.00       0.00       1.41       9.87      28.27      38.14        0.01     0.00   0.966
  4424                      39.50       0.00       0.00       1.41       9.87      28.27      38.14        0.01     0.00   0.966
  4425                      39.50       0.00       0.00       1.41       9.87      28.27      38.14        0.01     0.00   0.966
  4426                      39.50       0.00       0.00       1.41       9.87      28.27      38.14        0.01     0.00   0.966
  4427                      39.50       0.00       0.00       1.41       9.87      28.27      38.14        0.01     0.00   0.966
  4428                      39.50       0.00       0.00       1.41       9.87      28.27      38.14        0.01     0.00   0.966
  4455                      39.50       0.00       0.00       1.41       9.87      28.27      38.14        0.01     0.00   0.966
  4456                      39.50       0.00       0.00       1.41       9.87      28.27      38.14        0.01     0.00   0.966
  4457                      39.50       0.00       0.00       1.41       9.87      28.27      38.14        0.01     0.00   0.966
  4458                      39.50       0.00       0.00       1.41       9.87      28.27      38.14        0.01     0.00   0.966
  4459                      39.50       0.00       0.00       1.41       9.87      28.27      38.14        0.01     0.00   0.966
  4460                      39.50       0.00       0.00       1.41       9.87      28.27      38.14        0.01     0.00   0.966
  4461                      39.50       0.00       0.00       1.41       9.87      28.27      38.14        0.01     0.00   0.966
  4464                      39.50       0.00       0.00       1.41       9.87      28.27      38.14        0.01     0.00   0.966
  4465                      39.50       0.00       0.00       1.41       9.87      28.27      38.14        0.01     0.00   0.966
  4466                      39.50       0.00       0.00       1.41       9.87      28.27      38.14        0.01     0.00   0.966
  4467                      39.50       0.00       0.00       1.41       9.87      28.27      38.14        0.01     0.00   0.966
  4468                      39.50       0.00       0.00       1.41       9.87      28.27      38.14        0.01     0.00   0.966
  4469                      39.50       0.00       0.00       1.41       9.87      28.27      38.14        0.01     0.00   0.966
  4470                      39.50       0.00       0.00       1.41       9.87      28.27      38.14        0.01     0.00   0.966
  4471                      39.50       0.00       0.00       1.41       9.87      28.27      38.14        0.01     0.00   0.966
  4472                      39.50       0.00       0.00       1.41       9.87      28.27      38.14        0.01     0.00   0.966
  4473                      39.50       0.00       0.00       1.41       9.87      28.27      38.14        0.01     0.00   0.966
  4474                      39.50       0.00       0.00       1.41       9.87      28.27      38.14        0.01     0.00   0.966
  4628                      39.50       0.00       0.00       1.41       9.87      28.27      38.14        0.01     0.00   0.966
  4631                      39.50       0.00       0.00       1.41       9.87      28.27      38.14        0.01     0.00   0.966
  4632                      39.50       0.00       0.00       1.41       9.87      28.27      38.14        0.01     0.00   0.966
  4633                      39.50       0.00       0.00       1.41       9.87      28.27      38.14        0.01     0.00   0.966
  4634                      39.50       0.00       0.00       1.41       9.87      28.27      38.14        0.01     0.00   0.966
  4637                      39.50       0.00       0.00       1.41       9.87      28.27      38.14        0.01     0.00   0.966
  4686                      39.50       0.00       0.00       1.41       9.87      28.27      38.14        0.01     0.00   0.966
  4687                      39.50       0.00       0.00       1.41       9.87      28.27      38.14        0.01     0.00   0.966
  4688                      39.50       0.00       0.00       1.41       9.87      28.27      38.14        0.01     0.00   0.966
  5032                      39.50       0.00       0.00       1.41       9.87      28.27      38.14        0.01     0.00   0.966
  5331                      39.50       0.00       0.00       1.41       9.87      28.27      38.14        0.01     0.00   0.966
  5332                      39.50       0.00       0.00       1.41       9.87      28.27      38.14        0.01     0.00   0.966
  5335                      39.50       0.00       0.00       1.41       9.87      28.27      38.14        0.01     0.00   0.966
  5336                      39.50       0.00       0.00       1.41       9.87      28.27      38.14        0.01     0.00   0.966
  5337                      39.50       0.00       0.00       1.41       9.87      28.27      38.14        0.01     0.00   0.966
  5338                      39.50       0.00       0.00       1.41       9.87      28.27      38.14        0.01     0.00   0.966
  5339                      39.50       0.00       0.00       1.41       9.87      28.27      38.14        0.01     0.00   0.966
  5340                      39.50       0.00       0.00       1.41       9.87      28.27      38.14        0.01     0.00   0.966
  5341                      39.50       0.00       0.00       1.41       9.87      28.27      38.14        0.01     0.00   0.966
  5342                      39.50       0.00       0.00       1.41       9.87      28.27      38.14        0.01     0.00   0.966
  5343                      39.50       0.00       0.00       1.41       9.87      28.27      38.14        0.01     0.00   0.966
  5344                      39.50       0.00       0.00       1.41       9.87      28.27      38.14        0.01     0.00   0.966
  5345                      39.50       0.00       0.00       1.41       9.87      28.27      38.14        0.01     0.00   0.966
  5346                      39.50       0.00       0.00       1.41       9.87      28.27      38.14        0.01     0.00   0.966
  5347                      39.50       0.00       0.00       1.41       9.87      28.27      38.14        0.01     0.00   0.966
  5348                      39.50       0.00       0.00       1.41       9.87      28.27      38.14        0.01     0.00   0.966
  5349                      39.50       0.00       0.00       1.41       9.87      28.27      38.14        0.01     0.00   0.966
  5350                      39.50       0.00       0.00       1.41       9.87      28.27      38.14        0.01     0.00   0.966
  6088                      39.50       0.00       0.00       1.41       9.87      28.27      38.14        0.01     0.00   0.966
  7275                      39.50       0.00       0.00       1.41       9.87      28.27      38.14        0.01     0.00   0.966
  9955                      39.50       0.00       0.00       1.41       9.87      28.27      38.14        0.01     0.00   0.966
  9956                      39.50       0.00       0.00       1.41       9.87      28.27      38.14        0.01     0.00   0.966
  
  
  ****************************
  Subcatchment Washoff Summary
  ****************************
  
  ----------------------------------
                                 COD
  Subcatchment                    kg
  ----------------------------------
  2707                        10.019
  2708                        10.019
  2709                        10.019
  2710                        10.019
  2712                        10.019
  2713                        10.019
  2714                        10.019
  2715                        10.019
  2716                        10.019
  2717                        10.019
  2718                        10.019
  2719                        10.019
  2721                        10.019
  2722                        10.019
  2723                        10.019
  2724                        10.019
  2725                        10.019
  2726                        10.019
  2727                        10.019
  2728                        10.019
  2729                        10.019
  2730                        10.019
  2731                        10.019
  2732                        10.019
  2733                        10.019
  2734                        10.019
  2735                        10.019
  2736                        10.019
  2737                        10.019
  2738                        10.019
  2739                        10.019
  2740                        10.019
  2741                        10.019
  2742                        10.019
  2743                        10.019
  2744                        10.019
  2745                        10.019
  2746                        10.019
  2747                        10.019
  2748                        10.019
  2749                        10.019
  2750                        10.019
  2751                        10.019
  2752                        10.019
  2753                        10.019
  2754                        10.019
  2755                        10.019
  2756                        10.019
  2964                        10.019
  2969                        10.019
  2970                        10.019
  2974                        10.019
  2975                        10.019
  2976                        10.019
  2977                        10.019
  2978                        10.019
  2979                        10.019
  2980                        10.019
  2981                        10.019
  2982                        10.019
  2984                        10.019
  2985                        10.019
  3925                        10.019
  3926                        10.019
  3927                        10.019
  3928                        10.019
  3929                        10.019
  3930                        10.019
  3931                        10.019
  3932                        10.019
  3933                        10.019
  3934                        10.019
  3935                        10.019
  3936                        10.019
  3937                        10.019
  3938                        10.019
  3939                        10.019
  3940                        10.019
  3941                        10.019
  3942                        10.019
  3943                        10.019
  3944                        10.019
  3945                        10.019
  3946                        10.019
  3947                        10.019
  3948                        10.019
  3949                        10.019
  3950                        10.019
  3951                        10.019
  3952                        10.019
  3953                        10.019
  3954                        10.019
  3955                        10.019
  3956                        10.019
  4032                        10.019
  4033                        10.019
  4041                        10.019
  4051                        10.019
  4055                        10.019
  4056                        10.019
  4058                        10.019
  4385                        10.019
  4386                        10.019
  4387                        10.019
  4388                        10.019
  4389                        10.019
  4390                        10.019
  4391                        10.019
  4392                        10.019
  4393                        10.019
  4394                        10.019
  4395                        10.019
  4396                        10.019
  4397                        10.019
  4398                        10.019
  4429                        10.019
  4430                        10.019
  4431                        10.019
  4432                        10.019
  4433                        10.019
  4434                        10.019
  4435                        10.019
  4436                        10.019
  4437                        10.019
  4438                        10.019
  4439                        10.019
  4440                        10.019
  4441                        10.019
  4442                        10.019
  4443                        10.019
  4444                        10.019
  4445                        10.019
  4446                        10.019
  4447                        10.019
  4448                        10.019
  4449                        10.019
  4450                        10.019
  4451                        10.019
  4452                        10.019
  4453                        10.019
  4454                        10.019
  4462                        10.019
  4463                        10.019
  4563                        10.019
  4564                        10.019
  4565                        10.019
  4566                        10.019
  4567                        10.019
  4568                        10.019
  4569                        10.019
  4570                        10.019
  4571                        10.019
  4572                        10.019
  4573                        10.019
  4574                        10.019
  4575                        10.019
  4576                        10.019
  4577                        10.019
  4578                        10.019
  4579                        10.019
  4580                        10.019
  4581                        10.019
  4624                        10.019
  4625                        10.019
  4644                        10.019
  4645                        10.019
  4646                        10.019
  4679                        10.019
  4680                        10.019
  4681                        10.019
  4682                        10.019
  4683                        10.019
  4711                        10.019
  4712                        10.019
  4713                        10.019
  4714                        10.019
  4715                        10.019
  4716                        10.019
  4717                        10.019
  4718                        10.019
  4722                        10.019
  4760                        10.019
  4761                        10.019
  4765                        10.019
  4766                        10.019
  4767                        10.019
  4768                        10.019
  4769                        10.019
  4855                        10.019
  4856                        10.019
  5284                        10.019
  5285                        10.019
  5286                        10.019
  5287                        10.019
  5288                        10.019
  5289                        10.019
  5290                        10.019
  5291                        10.019
  5292                        10.019
  5293                        10.019
  5294                        10.019
  5295                        10.019
  5296                        10.019
  5297                        10.019
  5298                        10.019
  5299                        10.019
  5300                        10.019
  5301                        10.019
  5302                        10.019
  5303                        10.019
  5304                        10.019
  5305                        10.019
  5306                        10.019
  5307                        10.019
  5308                        10.019
  5309                        10.019
  5310                        10.019
  5311                        10.019
  5312                        10.019
  5313                        10.019
  5314                        10.019
  5315                        10.019
  5316                        10.019
  5317                        10.019
  5318                        10.019
  5319                        10.019
  5320                        10.019
  5321                        10.019
  5322                        10.019
  5323                        10.019
  5324                        10.019
  5325                        10.019
  5326                        10.019
  5327                        10.019
  5328                        10.019
  5329                        10.019
  5330                        10.019
  5333                        10.019
  5334                        10.019
  6040                        10.019
  6041                        10.019
  6162                        10.019
  7207                        10.019
  7208                        10.019
  7213                        10.019
  7214                        10.019
  7219                        10.019
  7220                        10.019
  7221                        10.019
  7225                        10.019
  7229                        10.019
  7231                        10.019
  7268                        10.019
  7269                        10.019
  7271                        10.019
  7272                        10.019
  7273                        10.019
  7433                        10.019
  7434                        10.019
  7544                        10.019
  7545                        10.019
  8737                        10.019
  8818                        10.019
  9942                        10.019
  9957                        10.019
  4399                         3.010
  4400                         3.010
  4401                         3.010
  4402                         3.010
  4403                         3.010
  4404                         3.010
  4405                         3.010
  4406                         3.010
  4407                         3.010
  4408                         3.010
  4409                         3.010
  4410                         3.010
  4411                         3.010
  4412                         3.010
  4423                         3.010
  4424                         3.010
  4425                         3.010
  4426                         3.010
  4427                         3.010
  4428                         3.010
  4455                         3.010
  4456                         3.010
  4457                         3.010
  4458                         3.010
  4459                         3.010
  4460                         3.010
  4461                         3.010
  4464                         3.010
  4465                         3.010
  4466                         3.010
  4467                         3.010
  4468                         3.010
  4469                         3.010
  4470                         3.010
  4471                         3.010
  4472                         3.010
  4473                         3.010
  4474                         3.010
  4628                         3.010
  4631                         3.010
  4632                         3.010
  4633                         3.010
  4634                         3.010
  4637                         3.010
  4686                         3.010
  4687                         3.010
  4688                         3.010
  5032                         3.010
  5331                         3.010
  5332                         3.010
  5335                         3.010
  5336                         3.010
  5337                         3.010
  5338                         3.010
  5339                         3.010
  5340                         3.010
  5341                         3.010
  5342                         3.010
  5343                         3.010
  5344                         3.010
  5345                         3.010
  5346                         3.010
  5347                         3.010
  5348                         3.010
  5349                         3.010
  5350                         3.010
  6088                         3.010
  7275                         3.010
  9955                         3.010
  9956                         3.010
  ----------------------------------
  System                    2865.680
  
  
  ******************
  Node Depth Summary
  ******************
  
  ---------------------------------------------------------------------------------
                                 Average  Maximum  Maximum  Time of Max    Reported
                                   Depth    Depth      HGL   Occurrence   Max Depth
  Node                 Type       Meters   Meters   Meters  days hr:min      Meters
  ---------------------------------------------------------------------------------
<<<<<<< HEAD
  Node_02706           JUNCTION     2.24     4.41   101.25     0  03:00        0.00
  Node_02707           JUNCTION     0.83     2.36   101.79     0  02:31        0.00
  Node_02708           JUNCTION     0.69     2.34   102.10     0  02:30        0.00
  Node_02709           JUNCTION     0.79     2.55   102.18     0  02:30        0.00
  Node_02711           JUNCTION     0.48     2.26   102.17     0  02:30        0.00
  Node_02712           JUNCTION     0.49     2.24   102.14     0  02:30        0.00
  Node_02713           JUNCTION     0.53     2.24   102.09     0  02:30        0.00
  Node_02714           JUNCTION     0.20     1.70   102.10     0  02:30        0.00
  Node_02715           JUNCTION     0.54     2.13   101.94     0  02:30        0.00
  Node_02716           JUNCTION     0.60     2.09   101.81     0  02:30        0.00
  Node_02717           JUNCTION     0.66     2.15   101.78     0  02:31        0.00
  Node_02718           JUNCTION     0.67     2.19   101.79     0  02:31        0.00
  Node_02720           JUNCTION     0.69     2.24   101.81     0  02:31        0.00
  Node_02721           JUNCTION     0.99     2.57   101.81     0  02:31        0.00
  Node_02722           JUNCTION     0.13     0.20   102.00     0  02:45        0.00
  Node_02723           JUNCTION     0.93     2.49   101.78     0  02:31        0.00
  Node_02724           JUNCTION     0.78     2.31   101.73     0  02:31        0.00
  Node_02725           JUNCTION     0.81     2.30   101.66     0  02:31        0.00
  Node_02726           JUNCTION     0.89     2.34   101.60     0  02:31        0.00
  Node_02727           JUNCTION     0.99     2.42   101.54     0  02:31        0.00
  Node_02728           JUNCTION     0.35     1.46   101.54     0  02:31        0.00
  Node_02729           JUNCTION     1.03     2.41   101.47     0  02:31        0.00
  Node_02730           JUNCTION     1.05     2.36   101.38     0  02:31        0.00
  Node_02731           JUNCTION     1.47     2.68   101.27     0  02:31        0.00
  Node_02732           JUNCTION     1.03     2.19   101.21     0  02:31        0.00
  Node_02733           JUNCTION     1.01     2.24   101.24     0  02:33        0.00
  Node_02734           JUNCTION     1.28     2.55   101.26     0  02:33        0.00
  Node_02735           JUNCTION     1.18     2.45   101.26     0  02:33        0.00
  Node_02736           JUNCTION     1.35     2.66   101.27     0  02:33        0.00
  Node_02737           JUNCTION     1.31     2.65   101.26     0  02:32        0.00
  Node_02738           JUNCTION     1.12     2.50   101.27     0  02:59        0.00
  Node_02739           JUNCTION     0.97     2.40   101.27     0  02:58        0.00
  Node_02740           JUNCTION     0.96     2.44   101.28     0  02:59        0.00
  Node_02741           JUNCTION     0.63     1.99   101.28     0  03:00        0.00
  Node_02742           JUNCTION     0.95     2.48   101.28     0  02:59        0.00
  Node_02743           JUNCTION     1.34     2.91   101.28     0  02:59        0.00
  Node_02744           JUNCTION     0.53     1.94   101.28     0  02:44        0.00
  Node_02745           JUNCTION     1.05     2.66   101.28     0  02:59        0.00
  Node_02746           JUNCTION     0.92     2.59   101.28     0  02:59        0.00
  Node_02747           JUNCTION     0.16     0.93   101.28     0  02:59        0.00
  Node_02748           JUNCTION     0.13     0.83   101.28     0  02:59        0.00
  Node_02749           JUNCTION     0.89     2.64   101.28     0  02:59        0.00
  Node_02750           JUNCTION     0.87     2.67   101.27     0  02:59        0.00
  Node_02751           JUNCTION     0.83     2.68   101.28     0  02:59        0.00
  Node_02752           JUNCTION     0.81     2.72   101.26     0  02:59        0.00
  Node_02753           JUNCTION     0.81     2.79   101.26     0  02:59        0.00
  Node_02754           JUNCTION     0.76     2.94   101.25     0  03:00        0.00
  Node_02755           JUNCTION     1.69     3.85   101.25     0  03:00        0.00
  Node_02963           JUNCTION     0.48     1.88   101.79     0  02:31        0.00
  Node_02968           JUNCTION     0.24     1.16   101.28     0  02:59        0.00
  Node_02969           JUNCTION     0.30     1.40   101.28     0  02:59        0.00
  Node_02973           JUNCTION     1.21     3.37   101.25     0  03:00        0.00
  Node_02974           JUNCTION     1.19     3.75   100.88     0  02:59        0.00
  Node_02975           JUNCTION     1.20     3.76   100.90     0  03:00        0.00
  Node_02976           JUNCTION     1.30     3.86   101.05     0  03:00        0.00
  Node_02977           JUNCTION     1.38     3.95   101.29     0  02:59        0.00
  Node_02978           JUNCTION     1.28     3.87   101.40     0  03:00        0.00
  Node_02979           JUNCTION     1.10     3.66   100.78     0  03:00        0.00
  Node_02980           JUNCTION     0.98     3.55   100.63     0  03:00        0.00
  Node_02981           JUNCTION     0.92     3.53   100.48     0  03:00        0.00
  Node_02983           JUNCTION     0.24     1.15   101.27     0  02:59        0.00
  Node_02984           JUNCTION     1.71     4.27   101.25     0  02:59        0.00
  Node_03924           JUNCTION     0.16     1.00   101.82     0  02:20        0.00
  Node_03925           JUNCTION     0.48     2.07   102.44     0  02:33        0.00
  Node_03926           JUNCTION     0.11     0.96   102.43     0  02:33        0.00
  Node_03927           JUNCTION     0.45     2.06   102.44     0  02:33        0.00
  Node_03928           JUNCTION     0.47     2.09   102.44     0  02:34        0.00
  Node_03929           JUNCTION     0.48     2.12   102.42     0  02:34        0.00
  Node_03930           JUNCTION     0.50     2.16   102.41     0  02:40        0.00
  Node_03931           JUNCTION     0.49     2.15   102.40     0  02:35        0.00
  Node_03932           JUNCTION     0.52     2.19   102.35     0  02:43        0.00
  Node_03933           JUNCTION     0.51     2.16   102.28     0  02:39        0.00
  Node_03934           JUNCTION     0.22     1.42   102.28     0  02:35        0.00
  Node_03935           JUNCTION     0.56     2.19   102.16     0  02:41        0.00
  Node_03936           JUNCTION     0.57     2.13   102.06     0  02:42        0.00
  Node_03937           JUNCTION     1.28     1.77   101.93     0  02:44        0.00
  Node_03938           JUNCTION     1.00     3.27   102.46     0  02:44        0.00
  Node_03939           JUNCTION     1.08     3.41   102.44     0  02:39        0.00
  Node_03940           JUNCTION     1.13     3.48   102.41     0  02:40        0.00
  Node_03941           JUNCTION     1.19     3.53   102.34     0  02:31        0.00
  Node_03942           JUNCTION     1.21     3.54   102.29     0  02:39        0.00
  Node_03943           JUNCTION     1.27     3.58   102.19     0  02:03        0.00
  Node_03944           JUNCTION     1.35     3.69   102.17     0  02:03        0.00
  Node_03945           JUNCTION     1.41     3.78   102.20     0  02:27        0.00
  Node_03946           JUNCTION     1.47     3.88   102.24     0  02:35        0.00
  Node_03947           JUNCTION     1.71     4.37   102.26     0  02:45        0.00
  Node_03948           JUNCTION     1.67     4.41   102.26     0  02:45        0.00
  Node_03949           JUNCTION     1.77     4.55   102.25     0  02:45        0.00
  Node_03950           JUNCTION     1.63     4.47   102.24     0  02:44        0.00
  Node_03951           JUNCTION     1.60     4.49   102.18     0  02:45        0.00
  Node_03952           JUNCTION     1.60     4.51   102.10     0  02:45        0.00
  Node_03953           JUNCTION     1.49     4.41   101.98     0  03:00        0.00
  Node_03954           JUNCTION     2.34     5.22   101.80     0  03:00        0.00
  Node_03955           JUNCTION     1.26     4.07   101.56     0  02:59        0.00
  Node_04031           JUNCTION     0.27     1.03   102.26     0  02:41        0.00
  Node_04032           JUNCTION     1.40     3.91   102.26     0  02:44        0.00
  Node_04040           JUNCTION     0.49     1.74   102.28     0  02:38        0.00
  Node_04050           JUNCTION     0.36     1.66   102.62     0  03:26        0.00
  Node_04054           JUNCTION     0.17     1.30   102.44     0  02:35        0.00
  Node_04055           JUNCTION     0.30     1.54   102.35     0  02:35        0.00
  Node_04057           JUNCTION     0.28     1.60   101.91     0  02:21        0.00
  Node_04384           JUNCTION     1.47     4.07   101.65     0  02:45        0.00
  Node_04385           JUNCTION     1.20     3.81   101.73     0  02:45        0.00
  Node_04386           JUNCTION     1.20     3.81   101.75     0  02:45        0.00
  Node_04387           JUNCTION     1.20     3.81   101.77     0  02:44        0.00
  Node_04388           JUNCTION     1.20     3.80   101.81     0  02:45        0.00
  Node_04389           JUNCTION     0.31     1.45   101.81     0  02:45        0.00
  Node_04390           JUNCTION     1.19     3.79   101.81     0  02:45        0.00
  Node_04391           JUNCTION     1.19     3.76   101.83     0  02:45        0.00
  Node_04392           JUNCTION     1.31     3.88   101.84     0  02:44        0.00
  Node_04393           JUNCTION     1.19     3.73   101.85     0  02:43        0.00
  Node_04394           JUNCTION     0.48     2.20   101.85     0  02:45        0.00
  Node_04395           JUNCTION     1.19     3.70   101.85     0  02:44        0.00
  Node_04396           JUNCTION     1.17     3.65   101.86     0  02:43        0.00
  Node_04397           JUNCTION     0.38     1.96   101.85     0  02:43        0.00
  Node_04428           JUNCTION     1.19     3.64   101.86     0  02:45        0.00
  Node_04429           JUNCTION     1.18     3.60   101.85     0  02:44        0.00
  Node_04430           JUNCTION     1.17     3.58   101.86     0  02:43        0.00
  Node_04431           JUNCTION     1.00     3.28   101.85     0  02:45        0.00
  Node_04432           JUNCTION     0.93     3.17   101.85     0  02:44        0.00
  Node_04433           JUNCTION     0.79     2.97   101.85     0  02:44        0.00
  Node_04434           JUNCTION     1.06     3.25   101.84     0  02:44        0.00
  Node_04435           JUNCTION     0.92     3.05   101.83     0  02:42        0.00
  Node_04436           JUNCTION     1.32     3.43   101.82     0  02:44        0.00
  Node_04437           JUNCTION     1.47     3.52   101.81     0  02:40        0.00
  Node_04438           JUNCTION     1.77     3.81   101.82     0  02:43        0.00
  Node_04439           JUNCTION     0.83     2.85   101.82     0  02:41        0.00
  Node_04440           JUNCTION     0.83     2.82   101.83     0  02:41        0.00
  Node_04441           JUNCTION     0.63     2.51   101.84     0  02:42        0.00
  Node_04442           JUNCTION     0.91     2.86   101.83     0  02:42        0.00
  Node_04443           JUNCTION     0.78     2.70   101.84     0  02:42        0.00
  Node_04444           JUNCTION     0.78     2.67   101.84     0  02:40        0.00
  Node_04445           JUNCTION     0.73     2.59   101.85     0  02:44        0.00
  Node_04446           JUNCTION     0.71     2.53   101.86     0  02:43        0.00
  Node_04447           JUNCTION     0.67     2.43   101.87     0  02:42        0.00
  Node_04448           JUNCTION     0.70     2.43   101.88     0  02:43        0.00
  Node_04449           JUNCTION     0.71     2.44   101.89     0  02:42        0.00
  Node_04450           JUNCTION     0.86     2.59   101.92     0  02:20        0.00
  Node_04451           JUNCTION     0.69     2.39   101.93     0  02:20        0.00
  Node_04452           JUNCTION     0.50     2.13   101.95     0  02:20        0.00
  Node_04453           JUNCTION     0.36     1.74   101.96     0  02:20        0.00
  Node_04461           JUNCTION     0.66     2.29   101.91     0  02:20        0.00
  Node_04462           JUNCTION     0.66     2.29   101.94     0  02:20        0.00
  Node_04562           JUNCTION     0.56     2.46   102.05     0  02:21        0.00
  Node_04563           JUNCTION     0.86     2.92   102.04     0  02:21        0.00
  Node_04564           JUNCTION     0.65     2.68   102.06     0  02:21        0.00
  Node_04565           JUNCTION     0.67     2.72   102.08     0  02:21        0.00
  Node_04566           JUNCTION     0.79     2.88   102.07     0  02:21        0.00
  Node_04567           JUNCTION     0.73     2.83   102.05     0  02:21        0.00
  Node_04568           JUNCTION     0.73     2.83   102.02     0  02:21        0.00
  Node_04569           JUNCTION     0.85     3.04   102.01     0  02:21        0.00
  Node_04570           JUNCTION     0.54     2.28   102.01     0  02:35        0.00
  Node_04571           JUNCTION     0.85     2.99   101.92     0  02:20        0.00
  Node_04572           JUNCTION     2.23     4.44   101.97     0  02:45        0.00
  Node_04573           JUNCTION     1.90     4.14   101.98     0  02:42        0.00
  Node_04574           JUNCTION     2.42     3.69   101.99     0  02:21        0.00
  Node_04575           JUNCTION     2.37     4.67   101.99     0  02:21        0.00
  Node_04576           JUNCTION     0.98     3.33   101.98     0  02:44        0.00
  Node_04577           JUNCTION     1.00     3.38   101.96     0  02:38        0.00
  Node_04578           JUNCTION     1.03     3.44   101.94     0  02:44        0.00
  Node_04579           JUNCTION     1.07     3.50   101.91     0  02:44        0.00
  Node_04580           JUNCTION     0.48     1.98   101.76     0  02:20        0.00
  Node_04623           JUNCTION     0.39     2.06   101.72     0  02:45        0.00
  Node_04624           JUNCTION     0.55     2.38   101.84     0  02:35        0.00
  Node_04643           JUNCTION     0.46     2.00   101.91     0  02:21        0.00
  Node_04644           JUNCTION     0.46     2.00   101.84     0  02:44        0.00
  Node_04645           JUNCTION     0.63     2.05   101.65     0  02:20        0.00
  Node_04678           JUNCTION     0.45     2.13   101.86     0  02:43        0.00
  Node_04679           JUNCTION     0.25     1.54   101.72     0  02:45        0.00
  Node_04680           JUNCTION     1.25     3.84   101.61     0  02:45        0.00
  Node_04681           JUNCTION     1.22     3.80   101.52     0  02:45        0.00
  Node_04682           JUNCTION     0.19     0.97   101.98     0  02:21        0.00
  Node_04710           JUNCTION     0.60     2.00   101.99     0  03:58        0.00
[...]
  Link_01781                  80.297
  Link_01782                 400.809
  Link_01783                  13.303
  Link_01784                 411.033
  Link_01785                 417.649
  Link_01786                  63.491
  Link_01787                  34.884
  Link_01788                 505.210
  Link_01789                 517.221
  Link_01790                  18.855
  Link_01791                  17.880
  Link_01792                  17.455
  Link_01793                 576.127
  Link_01794                 588.005
  Link_01795                 599.698
  Link_01796                 611.316
  Link_01797                 621.373
  Link_01798                1125.797
  Link_01799                1118.675
  Link_01800                1133.686
  Link_01801                 664.637
  Link_01802                1063.927
  Link_01803                1108.134
  Link_01804                 940.555
  Link_01805                 929.430
  Link_01806                 918.184
  Link_01807                 906.307
  Link_01808                  17.145
  Link_01809                 878.428
  Link_01810                 856.397
  Link_01811                  10.040
  Link_01812                  55.078
  Link_01813                  45.648
  Link_01814                 813.663
  Link_01815                 802.174
  Link_01816                 778.635
  Link_01817                  11.745
  Link_01818                 739.662
  Link_01819                 718.474
  Link_01820                  16.548
  Link_01821                  27.996
  Link_01822                   6.557
  Link_01823                 220.534
  Link_01824                 217.085
>>>>>>> b040755ab93617f94f1ab7a7036927f36e763e5a
>>>>>>> ebd46bdc835ac17077bb70c3b6f6db3a4ee81ecd
  Link_01825                  58.962
  Link_01826                  62.113
  Link_01827                   3.008
  Link_01828                  68.317
  Link_01829                   6.547
  Link_01830                  78.129
  Link_01831                   3.007
  Link_01832                  84.353
  Link_01833                  87.516
  Link_01834                  93.856
  Link_01835                   3.007
  Link_01836                  47.282
  Link_01837                  20.877
  Link_01838                  33.645
  Link_01839                  44.033
  Link_01840                  40.968
  Link_01841                  37.922
  Link_01842                  30.097
  Link_01843                  23.926
  Link_01844                  20.869
<<<<<<< HEAD
  Link_02074                  13.588
  Link_02075                 134.475
  Link_02076                 145.608
  Link_02077                  23.062
  Link_02078                 173.589
  Link_02079                  15.416
  Link_02080                 199.635
  Link_02081                 209.976
  Link_02082                 220.369
  Link_02083                  15.432
  Link_02084                  13.702
  Link_02085                 472.143
  Link_02086                 469.151
  Link_02087                 468.481
  Link_02088                 467.368
  Link_02089                 466.720
  Link_02090                 515.192
  Link_02091                 504.722
  Link_02092                 494.098
  Link_02093                  13.687
  Link_02094                 458.880
  Link_02095                 448.223
  Link_02096                 459.939
  Link_02097                  20.574
  Link_02098                  70.578
  Link_02099                 449.384
  Link_02100                 439.106
  Link_02101                  51.119
  Link_02102                 447.268
  Link_02103                 418.147
  Link_02104                  27.811
  Link_02105                 332.220
  Link_02106                  17.436
  Link_02107                  10.233
  Link_02108                 345.999
  Link_02109                 335.377
  Link_02110                 321.519
  Link_02111                 210.736
  Link_02112                  18.823
=======
<<<<<<< HEAD
  Link_02074                  13.539
  Link_02075                 132.179
  Link_02076                 142.900
  Link_02077                  22.923
  Link_02078                 170.370
  Link_02079                  15.372
  Link_02080                 196.323
  Link_02081                 206.650
  Link_02082                 217.034
  Link_02083                  15.479
  Link_02084                  13.661
  Link_02085                 509.330
  Link_02086                 506.397
  Link_02087                 506.197
  Link_02088                 504.757
  Link_02089                 503.619
  Link_02090                 551.523
  Link_02091                 540.793
  Link_02092                 530.425
  Link_02093                  13.662
  Link_02094                 495.249
  Link_02095                 485.006
  Link_02096                 496.809
  Link_02097                  20.609
  Link_02098                  69.790
  Link_02099                 486.486
  Link_02100                 476.315
  Link_02101                  50.217
  Link_02102                 482.782
  Link_02103                 453.782
  Link_02104                  28.512
  Link_02105                 369.399
  Link_02106                  17.513
  Link_02107                  10.369
  Link_02108                 372.723
  Link_02109                 363.490
  Link_02110                 321.225
  Link_02111                 210.717
  Link_02112                  18.832
>>>>>>> ebd46bdc835ac17077bb70c3b6f6db3a4ee81ecd
  Link_02113                 154.031
  Link_02114                  45.538
  Link_02115                  42.387
  Link_02116                  39.315
  Link_02117                  36.283
<<<<<<< HEAD
=======
=======
  Link_02074                  13.567
  Link_02075                 137.215
  Link_02076                 147.653
  Link_02077                  23.123
  Link_02078                 174.763
  Link_02079                  15.394
  Link_02080                 200.803
  Link_02081                 211.112
  Link_02082                 221.460
  Link_02083                  15.432
  Link_02084                  13.680
  Link_02085                 530.923
  Link_02086                 527.709
  Link_02087                 527.138
  Link_02088                 526.261
  Link_02089                 525.816
  Link_02090                 565.104
  Link_02091                 554.389
  Link_02092                 543.512
  Link_02093                  13.635
  Link_02094                 507.952
  Link_02095                 497.210
  Link_02096                 508.158
  Link_02097                  20.608
  Link_02098                  69.049
  Link_02099                 497.886
  Link_02100                 487.564
  Link_02101                  48.651
  Link_02102                 493.058
  Link_02103                 463.472
  Link_02104                  27.925
  Link_02105                 375.403
  Link_02106                  17.480
  Link_02107                  10.242
  Link_02108                 384.057
  Link_02109                 372.874
  Link_02110                 321.664
  Link_02111                 210.726
  Link_02112                  18.846
  Link_02113                 154.031
  Link_02114                  45.538
  Link_02115                  42.388
  Link_02116                  39.316
  Link_02117                  36.284
>>>>>>> b040755ab93617f94f1ab7a7036927f36e763e5a
>>>>>>> ebd46bdc835ac17077bb70c3b6f6db3a4ee81ecd
  Link_02118                  33.230
  Link_02123                   6.554
  Link_02124                   9.591
  Link_02125                  12.634
  Link_02126                  15.660
<<<<<<< HEAD
  Link_02127                  30.193
  Link_02128                  27.139
  Link_02129                  24.113
=======
<<<<<<< HEAD
  Link_02127                  30.192
  Link_02128                  27.139
  Link_02129                  24.114
=======
  Link_02127                  30.193
  Link_02128                  27.140
  Link_02129                  24.112
>>>>>>> b040755ab93617f94f1ab7a7036927f36e763e5a
>>>>>>> ebd46bdc835ac17077bb70c3b6f6db3a4ee81ecd
  Link_02130                  21.087
  Link_02131                  18.026
  Link_02132                  14.956
  Link_02133                  11.886
<<<<<<< HEAD
  Link_02134                 157.208
  Link_02135                 160.350
  Link_02136                 170.078
  Link_02137                   6.551
  Link_02138                 195.605
  Link_02139                 192.434
  Link_02140                 189.193
  Link_02141                 186.069
  Link_02142                 182.858
  Link_02143                 173.200
  Link_02383                  10.494
  Link_02384                  12.201
  Link_02385                  19.250
  Link_02386                  27.767
  Link_02387                  57.546
  Link_02388                  67.555
  Link_02389                  24.423
  Link_02390                  77.603
  Link_02391                 110.841
  Link_02392                  39.150
  Link_02393                 158.472
  Link_05459                 104.873
  Link_05460                 202.213
  Link_05461                 232.323
  Link_05462                 407.517
  Link_05463                 604.159
  Link_05464                  41.023
  Link_05496                1802.532
  Link_05662                  55.305
  Link_05663                  11.338
  Link_05664                  45.428
  Link_05665                 395.769
  Link_05677                 256.024
  Link_05678                  20.802
  Link_05720                1003.430
  Link_05721                 793.637
  Link_05722                  18.815
  Link_05723                 105.292
  Link_05725                  18.716
  Link_05726                 472.713
  Link_05727                  11.833
  Link_05728                 469.882
  Link_05729                 457.392
  Link_05730                 317.931
  Link_05731                 213.820
  Link_05732                 207.636
  Link_05742                  28.029
  Link_05743                 127.131
  Link_05744                 231.288
  Link_05752                 201.044
  Link_05753                   4.788
  Link_05754                  27.003
  Link_05791                   6.550
  Link_05812                 242.054
  Link_05813                 154.901
  Link_05814                 112.531
  Link_05815                 129.704
  Link_05816                  22.277
  Link_05817                  31.987
  Link_05818                  11.888
  Link_05983                  32.404
  Link_05984                  22.371
  Link_06039                   3.002
  Link_07220                 155.704
  Link_07221                 165.793
  Link_07222                 146.061
  Link_07230                 156.329
  Link_07231                 166.501
  Link_07233                 342.957
  Link_07234                 353.125
  Link_07235                 166.482
  Link_07270                  35.938
  Link_07271                  60.005
  Link_07274                  21.151
  Link_07277                  83.901
  Link_07278                 103.137
  Link_07295                 102.725
  Link_07296                 116.534
  Link_07297                 145.553
  Link_07303                  13.756
  Link_07306                  58.448
  Link_07321                  11.885
  Link_07464                  24.289
  Link_07578                  26.887
  Link_07579                 406.708
  Link_07580                 372.222
  Link_07687                  22.485
  Link_07865                  11.875
  Link_08891                  15.428
  Link_08912                  36.548
  Link1_to_ChengXi          1908.128
  Link2_to_ChengXi           410.464
  Link3_to_ChengXi           364.106
  Link_to_LaoDongLu          324.586
  Pump_ChengXi1             1115.343
  Pump_ChengXi2              692.864
  Pump_ChengXi3              519.044
  Pump_ChengXi4              467.777
  Pump_LaoDongLu1            160.675
  Pump_LaoDongLu2             92.225
  Pump_LaoDongLu3             72.727
  outfallpump               1851.011
  

  Analysis begun on:  Mon Aug 16 03:44:07 2021
  Analysis ended on:  Mon Aug 16 03:44:10 2021
  Total elapsed time: 00:00:03
=======
  Link_02134                 157.209
<<<<<<< HEAD
  Link_02135                 160.349
  Link_02136                 170.078
  Link_02137                   6.551
  Link_02138                 195.586
  Link_02139                 192.415
  Link_02140                 189.188
  Link_02141                 186.063
  Link_02142                 182.871
  Link_02143                 173.189
  Link_02383                  10.515
  Link_02384                  12.008
  Link_02385                  19.024
  Link_02386                  27.820
  Link_02387                  57.335
  Link_02388                  67.425
  Link_02389                  24.385
  Link_02390                  77.509
  Link_02391                 110.702
  Link_02392                  39.058
  Link_02393                 158.030
  Link_05459                 105.262
  Link_05460                 199.960
  Link_05461                 232.037
  Link_05462                 404.901
  Link_05463                 596.007
  Link_05464                  40.809
  Link_05496                1827.766
  Link_05662                  55.623
  Link_05663                  11.518
  Link_05664                  45.606
  Link_05665                 395.095
  Link_05677                 256.755
  Link_05678                  20.749
  Link_05720                1035.336
  Link_05721                 825.317
  Link_05722                  18.838
  Link_05723                 105.292
  Link_05725                  18.716
  Link_05726                 510.605
  Link_05727                  11.799
  Link_05728                 506.604
  Link_05729                 493.179
  Link_05730                 317.939
  Link_05731                 213.816
  Link_05732                 207.616
  Link_05742                  28.032
  Link_05743                 125.357
  Link_05744                 228.039
  Link_05752                 201.710
  Link_05753                   4.788
  Link_05754                  27.003
  Link_05791                   6.550
  Link_05812                 242.147
  Link_05813                 154.743
  Link_05814                 112.511
  Link_05815                 129.684
  Link_05816                  22.277
  Link_05817                  31.987
  Link_05818                  11.888
  Link_05983                  32.471
  Link_05984                  22.376
  Link_06039                   3.002
  Link_07220                 162.542
  Link_07221                 172.696
  Link_07222                 152.441
  Link_07230                 162.722
  Link_07231                 172.879
  Link_07233                 349.554
  Link_07234                 359.754
  Link_07235                 166.682
  Link_07270                  37.155
  Link_07271                  61.865
  Link_07274                  21.177
  Link_07277                  85.701
  Link_07278                 108.952
  Link_07295                 109.260
  Link_07296                 123.267
  Link_07297                 152.452
  Link_07303                  13.941
  Link_07306                  59.176
  Link_07321                  11.885
  Link_07464                  24.289
  Link_07578                  26.774
  Link_07579                 441.702
  Link_07580                 409.531
  Link_07687                  22.470
  Link_07865                  11.875
  Link_08891                  15.442
  Link_08912                  36.547
  Link1_to_ChengXi          1934.957
  Link2_to_ChengXi           409.787
  Link3_to_ChengXi           370.683
  Link_to_LaoDongLu          324.397
  Pump_ChengXi1              930.355
  Pump_ChengXi2              853.990
  Pump_ChengXi3              546.481
  Pump_ChengXi4              498.111
  Pump_LaoDongLu1            192.155
  Pump_LaoDongLu2             85.763
  Pump_LaoDongLu3             76.547
  outfallpump               2180.384
  

  Analysis begun on:  Mon Aug 16 03:26:19 2021
  Analysis ended on:  Mon Aug 16 03:26:21 2021
  Total elapsed time: 00:00:02
=======
  Link_02135                 160.348
  Link_02136                 170.077
  Link_02137                   6.551
  Link_02138                 195.600
  Link_02139                 192.429
  Link_02140                 189.194
  Link_02141                 186.068
  Link_02142                 182.869
  Link_02143                 173.191
  Link_02383                  10.390
  Link_02384                  12.218
  Link_02385                  19.071
  Link_02386                  27.770
  Link_02387                  57.165
  Link_02388                  67.049
  Link_02389                  24.313
  Link_02390                  77.068
  Link_02391                 110.284
  Link_02392                  39.179
  Link_02393                 158.594
  Link_05459                 104.772
  Link_05460                 203.158
  Link_05461                 233.235
  Link_05462                 392.863
  Link_05463                 564.384
  Link_05464                  39.451
  Link_05496                1810.720
  Link_05662                  55.122
  Link_05663                  11.704
  Link_05664                  46.277
  Link_05665                 392.584
  Link_05677                 258.338
  Link_05678                  20.375
  Link_05720                1052.174
  Link_05721                 844.203
  Link_05722                  18.878
  Link_05723                 105.292
  Link_05725                  18.716
  Link_05726                 532.543
  Link_05727                  11.814
  Link_05728                 519.082
  Link_05729                 503.237
  Link_05730                 317.809
  Link_05731                 213.812
  Link_05732                 207.630
  Link_05742                  28.076
  Link_05743                 129.500
  Link_05744                 232.019
  Link_05752                 197.205
  Link_05753                   4.788
  Link_05754                  27.003
  Link_05791                   6.550
  Link_05812                 242.075
  Link_05813                 154.827
  Link_05814                 112.553
  Link_05815                 129.766
  Link_05816                  22.277
  Link_05817                  31.987
  Link_05818                  11.888
  Link_05983                  32.401
  Link_05984                  22.397
  Link_06039                   3.002
  Link_07220                 167.991
  Link_07221                 178.147
  Link_07222                 157.577
  Link_07230                 167.854
  Link_07231                 177.961
  Link_07233                 353.101
  Link_07234                 363.283
  Link_07235                 165.134
  Link_07270                  40.347
  Link_07271                  67.029
  Link_07274                  21.908
  Link_07277                  94.650
  Link_07278                 120.846
  Link_07295                 113.862
  Link_07296                 128.835
  Link_07297                 157.905
  Link_07303                  13.987
  Link_07306                  60.004
  Link_07321                  11.885
  Link_07464                  24.321
  Link_07578                  27.021
  Link_07579                 451.668
  Link_07580                 416.226
  Link_07687                  22.485
  Link_07865                  11.875
  Link_08891                  15.401
  Link_08912                  36.538
  Link1_to_ChengXi          1916.997
  Link2_to_ChengXi           407.292
  Link3_to_ChengXi           374.239
  Link_to_LaoDongLu          324.683
  Pump_ChengXi1             1052.114
  Pump_ChengXi2              719.957
  Pump_ChengXi3              526.211
  Pump_ChengXi4              494.585
  Pump_LaoDongLu1            191.807
  Pump_LaoDongLu2            111.961
  Pump_LaoDongLu3             59.180
  outfallpump               1919.956
  

  Analysis begun on:  Tue Aug 17 21:44:30 2021
  Analysis ended on:  Tue Aug 17 21:44:33 2021
  Total elapsed time: 00:00:03
>>>>>>> b040755ab93617f94f1ab7a7036927f36e763e5a
>>>>>>> ebd46bdc835ac17077bb70c3b6f6db3a4ee81ecd
