
  EPA STORM WATER MANAGEMENT MODEL - VERSION 5.1 (Build 5.3.0.dev0)
  --------------------------------------------------------------

  WARNING 04: minimum elevation drop used for Conduit Link_01776
  WARNING 04: minimum elevation drop used for Conduit Link_01779
  WARNING 04: minimum elevation drop used for Conduit Link_07234
  WARNING 02: maximum depth increased for Node Node_06087
  
  *********************************************************
  NOTE: The summary statistics displayed in this report are
  based on results found at every computational time step,  
  not just on results from each reporting time step.
  *********************************************************
  
  ****************
  Analysis Options
  ****************
  Flow Units ............... CMS
  Process Models:
    Rainfall/Runoff ........ YES
    RDII ................... NO
    Snowmelt ............... NO
    Groundwater ............ NO
    Flow Routing ........... YES
    Ponding Allowed ........ YES
    Water Quality .......... YES
  Infiltration Method ...... HORTON
  Flow Routing Method ...... DYNWAVE
  Surcharge Method ......... EXTRAN
  Starting Date ............ 01/02/2011 00:00:00
  Ending Date .............. 01/02/2011 06:00:00
  Antecedent Dry Days ...... 0.0
  Report Time Step ......... 00:15:00
  Wet Time Step ............ 00:05:00
  Dry Time Step ............ 01:00:00
  Routing Time Step ........ 60.00 sec
  Variable Time Step ....... YES
  Maximum Trials ........... 8
  Number of Threads ........ 1
  Head Tolerance ........... 0.001500 m
  
  
  **************************        Volume         Depth
  Runoff Quantity Continuity     hectare-m            mm
  **************************     ---------       -------
  Total Precipitation ......         0.529        18.500
  Evaporation Loss .........         0.000         0.000
  Infiltration Loss ........         0.051         1.770
  Surface Runoff ...........         0.482        16.869
  Final Storage ............         0.000         0.009
  Continuity Error (%) .....        -0.803
  
  
  **************************           COD
  Runoff Quality Continuity             kg
  **************************    ----------
  Initial Buildup ..........         0.000
  Surface Buildup ..........         0.000
  Wet Deposition ...........      1391.541
  Sweeping Removal .........         0.000
  Infiltration Loss ........       133.173
  BMP Removal ..............         0.000
  Surface Runoff ...........      1268.831
  Remaining Buildup ........         0.706
  Continuity Error (%) .....        -0.803
  
  
  **************************        Volume        Volume
  Flow Routing Continuity        hectare-m      10^6 ltr
  **************************     ---------     ---------
  Dry Weather Inflow .......         0.153         1.529
  Wet Weather Inflow .......         0.482         4.824
  Groundwater Inflow .......         0.000         0.000
  RDII Inflow ..............         0.000         0.000
  External Inflow ..........         0.000         0.000
  External Outflow .........         0.551         5.507
  Flooding Loss ............         0.064         0.637
  Evaporation Loss .........         0.000         0.000
  Exfiltration Loss ........         0.000         0.000
  Initial Stored Volume ....         0.077         0.773
  Final Stored Volume ......         0.213         2.134
  Continuity Error (%) .....       -16.146
  
  
  **************************           COD
  Quality Routing Continuity            kg
  **************************    ----------
  Dry Weather Inflow .......       845.606
  Wet Weather Inflow .......      1268.810
  Groundwater Inflow .......         0.000
  RDII Inflow ..............         0.000
  External Inflow ..........         0.000
  External Outflow .........      1689.322
  Flooding Loss ............       133.794
  Exfiltration Loss ........         0.000
  Mass Reacted .............         0.000
  Initial Stored Mass ......       427.257
  Final Stored Mass ........       509.185
  Continuity Error (%) .....         8.238
  
  
  *************************
  Highest Continuity Errors
  *************************
  Node Node_07272 (-76.31%)
  Node Node_04713 (-60.40%)
  Node Node_04714 (-38.07%)
  Node Node_02706 (19.28%)
  Node Node_07270 (-14.58%)
  
  
  ***************************
  Time-Step Critical Elements
  ***************************
  Link Link_01778 (68.52%)
  Link Link_02129 (22.22%)
  Link Link_07221 (1.76%)
  Link Link_01780 (1.57%)
  Link Link_02077 (1.23%)
  
  
  ********************************
  Highest Flow Instability Indexes
  ********************************
  Link Link_01336 (77)
  Link Link_01335 (75)
  Link Link_01323 (73)
  Link Link_01324 (72)
  Link Link_01558 (70)
  
  
  *************************
  Routing Time Step Summary
  *************************
  Minimum Time Step           :     5.00 sec
  Average Time Step           :     5.00 sec
  Maximum Time Step           :     5.00 sec
  Percent in Steady State     :     0.00
  Average Iterations per Step :     6.51
  Percent Not Converging      :    50.72
  
  
  ***************************
  Subcatchment Runoff Summary
  ***************************
  
  ------------------------------------------------------------------------------------------------------------------------------
                            Total      Total      Total      Total     Imperv       Perv      Total       Total     Peak  Runoff
                           Precip      Runon       Evap      Infil     Runoff     Runoff     Runoff      Runoff   Runoff   Coeff
  Subcatchment                 mm         mm         mm         mm         mm         mm         mm    10^6 ltr      CMS
  ------------------------------------------------------------------------------------------------------------------------------
  2707                      18.50       0.00       0.00       1.78       4.63      12.23      16.86        0.02     0.00   0.911
  2708                      18.50       0.00       0.00       1.78       4.63      12.23      16.86        0.02     0.00   0.911
  2709                      18.50       0.00       0.00       1.78       4.63      12.23      16.86        0.02     0.00   0.911
  2710                      18.50       0.00       0.00       1.78       4.63      12.23      16.86        0.02     0.00   0.911
  2712                      18.50       0.00       0.00       1.78       4.63      12.23      16.86        0.02     0.00   0.911
  2713                      18.50       0.00       0.00       1.78       4.63      12.23      16.86        0.02     0.00   0.911
  2714                      18.50       0.00       0.00       1.78       4.63      12.23      16.86        0.02     0.00   0.911
  2715                      18.50       0.00       0.00       1.78       4.63      12.23      16.86        0.02     0.00   0.911
  2716                      18.50       0.00       0.00       1.78       4.63      12.23      16.86        0.02     0.00   0.911
  2717                      18.50       0.00       0.00       1.78       4.63      12.23      16.86        0.02     0.00   0.911
  2718                      18.50       0.00       0.00       1.78       4.63      12.23      16.86        0.02     0.00   0.911
  2719                      18.50       0.00       0.00       1.78       4.63      12.23      16.86        0.02     0.00   0.911
  2721                      18.50       0.00       0.00       1.78       4.63      12.23      16.86        0.02     0.00   0.911
  2722                      18.50       0.00       0.00       1.78       4.63      12.23      16.86        0.02     0.00   0.911
  2723                      18.50       0.00       0.00       1.78       4.63      12.23      16.86        0.02     0.00   0.911
  2724                      18.50       0.00       0.00       1.78       4.63      12.23      16.86        0.02     0.00   0.911
  2725                      18.50       0.00       0.00       1.78       4.63      12.23      16.86        0.02     0.00   0.911
  2726                      18.50       0.00       0.00       1.78       4.63      12.23      16.86        0.02     0.00   0.911
  2727                      18.50       0.00       0.00       1.78       4.63      12.23      16.86        0.02     0.00   0.911
  2728                      18.50       0.00       0.00       1.78       4.63      12.23      16.86        0.02     0.00   0.911
  2729                      18.50       0.00       0.00       1.78       4.63      12.23      16.86        0.02     0.00   0.911
  2730                      18.50       0.00       0.00       1.78       4.63      12.23      16.86        0.02     0.00   0.911
  2731                      18.50       0.00       0.00       1.78       4.63      12.23      16.86        0.02     0.00   0.911
  2732                      18.50       0.00       0.00       1.78       4.63      12.23      16.86        0.02     0.00   0.911
  2733                      18.50       0.00       0.00       1.78       4.63      12.23      16.86        0.02     0.00   0.911
  2734                      18.50       0.00       0.00       1.78       4.63      12.23      16.86        0.02     0.00   0.911
  2735                      18.50       0.00       0.00       1.78       4.63      12.23      16.86        0.02     0.00   0.911
  2736                      18.50       0.00       0.00       1.78       4.63      12.23      16.86        0.02     0.00   0.911
  2737                      18.50       0.00       0.00       1.78       4.63      12.23      16.86        0.02     0.00   0.911
  2738                      18.50       0.00       0.00       1.78       4.63      12.23      16.86        0.02     0.00   0.911
  2739                      18.50       0.00       0.00       1.78       4.63      12.23      16.86        0.02     0.00   0.911
  2740                      18.50       0.00       0.00       1.78       4.63      12.23      16.86        0.02     0.00   0.911
  2741                      18.50       0.00       0.00       1.78       4.63      12.23      16.86        0.02     0.00   0.911
  2742                      18.50       0.00       0.00       1.78       4.63      12.23      16.86        0.02     0.00   0.911
  2743                      18.50       0.00       0.00       1.78       4.63      12.23      16.86        0.02     0.00   0.911
  2744                      18.50       0.00       0.00       1.78       4.63      12.23      16.86        0.02     0.00   0.911
  2745                      18.50       0.00       0.00       1.78       4.63      12.23      16.86        0.02     0.00   0.911
  2746                      18.50       0.00       0.00       1.78       4.63      12.23      16.86        0.02     0.00   0.911
  2747                      18.50       0.00       0.00       1.78       4.63      12.23      16.86        0.02     0.00   0.911
  2748                      18.50       0.00       0.00       1.78       4.63      12.23      16.86        0.02     0.00   0.911
  2749                      18.50       0.00       0.00       1.78       4.63      12.23      16.86        0.02     0.00   0.911
  2750                      18.50       0.00       0.00       1.78       4.63      12.23      16.86        0.02     0.00   0.911
  2751                      18.50       0.00       0.00       1.78       4.63      12.23      16.86        0.02     0.00   0.911
  2752                      18.50       0.00       0.00       1.78       4.63      12.23      16.86        0.02     0.00   0.911
  2753                      18.50       0.00       0.00       1.78       4.63      12.23      16.86        0.02     0.00   0.911
  2754                      18.50       0.00       0.00       1.78       4.63      12.23      16.86        0.02     0.00   0.911
  2755                      18.50       0.00       0.00       1.78       4.63      12.23      16.86        0.02     0.00   0.911
  2756                      18.50       0.00       0.00       1.78       4.63      12.23      16.86        0.02     0.00   0.911
  2964                      18.50       0.00       0.00       1.78       4.63      12.23      16.86        0.02     0.00   0.911
  2969                      18.50       0.00       0.00       1.78       4.63      12.23      16.86        0.02     0.00   0.911
  2970                      18.50       0.00       0.00       1.78       4.63      12.23      16.86        0.02     0.00   0.911
  2974                      18.50       0.00       0.00       1.78       4.63      12.23      16.86        0.02     0.00   0.911
  2975                      18.50       0.00       0.00       1.78       4.63      12.23      16.86        0.02     0.00   0.911
  2976                      18.50       0.00       0.00       1.78       4.63      12.23      16.86        0.02     0.00   0.911
  2977                      18.50       0.00       0.00       1.78       4.63      12.23      16.86        0.02     0.00   0.911
  2978                      18.50       0.00       0.00       1.78       4.63      12.23      16.86        0.02     0.00   0.911
  2979                      18.50       0.00       0.00       1.78       4.63      12.23      16.86        0.02     0.00   0.911
  2980                      18.50       0.00       0.00       1.78       4.63      12.23      16.86        0.02     0.00   0.911
  2981                      18.50       0.00       0.00       1.78       4.63      12.23      16.86        0.02     0.00   0.911
  2982                      18.50       0.00       0.00       1.78       4.63      12.23      16.86        0.02     0.00   0.911
  2984                      18.50       0.00       0.00       1.78       4.63      12.23      16.86        0.02     0.00   0.911
  2985                      18.50       0.00       0.00       1.78       4.63      12.23      16.86        0.02     0.00   0.911
  3925                      18.50       0.00       0.00       1.78       4.63      12.23      16.86        0.02     0.00   0.911
  3926                      18.50       0.00       0.00       1.78       4.63      12.23      16.86        0.02     0.00   0.911
  3927                      18.50       0.00       0.00       1.78       4.63      12.23      16.86        0.02     0.00   0.911
  3928                      18.50       0.00       0.00       1.78       4.63      12.23      16.86        0.02     0.00   0.911
  3929                      18.50       0.00       0.00       1.78       4.63      12.23      16.86        0.02     0.00   0.911
  3930                      18.50       0.00       0.00       1.78       4.63      12.23      16.86        0.02     0.00   0.911
  3931                      18.50       0.00       0.00       1.78       4.63      12.23      16.86        0.02     0.00   0.911
  3932                      18.50       0.00       0.00       1.78       4.63      12.23      16.86        0.02     0.00   0.911
  3933                      18.50       0.00       0.00       1.78       4.63      12.23      16.86        0.02     0.00   0.911
  3934                      18.50       0.00       0.00       1.78       4.63      12.23      16.86        0.02     0.00   0.911
  3935                      18.50       0.00       0.00       1.78       4.63      12.23      16.86        0.02     0.00   0.911
  3936                      18.50       0.00       0.00       1.78       4.63      12.23      16.86        0.02     0.00   0.911
  3937                      18.50       0.00       0.00       1.78       4.63      12.23      16.86        0.02     0.00   0.911
  3938                      18.50       0.00       0.00       1.78       4.63      12.23      16.86        0.02     0.00   0.911
  3939                      18.50       0.00       0.00       1.78       4.63      12.23      16.86        0.02     0.00   0.911
  3940                      18.50       0.00       0.00       1.78       4.63      12.23      16.86        0.02     0.00   0.911
  3941                      18.50       0.00       0.00       1.78       4.63      12.23      16.86        0.02     0.00   0.911
  3942                      18.50       0.00       0.00       1.78       4.63      12.23      16.86        0.02     0.00   0.911
  3943                      18.50       0.00       0.00       1.78       4.63      12.23      16.86        0.02     0.00   0.911
  3944                      18.50       0.00       0.00       1.78       4.63      12.23      16.86        0.02     0.00   0.911
  3945                      18.50       0.00       0.00       1.78       4.63      12.23      16.86        0.02     0.00   0.911
  3946                      18.50       0.00       0.00       1.78       4.63      12.23      16.86        0.02     0.00   0.911
  3947                      18.50       0.00       0.00       1.78       4.63      12.23      16.86        0.02     0.00   0.911
  3948                      18.50       0.00       0.00       1.78       4.63      12.23      16.86        0.02     0.00   0.911
  3949                      18.50       0.00       0.00       1.78       4.63      12.23      16.86        0.02     0.00   0.911
  3950                      18.50       0.00       0.00       1.78       4.63      12.23      16.86        0.02     0.00   0.911
  3951                      18.50       0.00       0.00       1.78       4.63      12.23      16.86        0.02     0.00   0.911
  3952                      18.50       0.00       0.00       1.78       4.63      12.23      16.86        0.02     0.00   0.911
  3953                      18.50       0.00       0.00       1.78       4.63      12.23      16.86        0.02     0.00   0.911
  3954                      18.50       0.00       0.00       1.78       4.63      12.23      16.86        0.02     0.00   0.911
  3955                      18.50       0.00       0.00       1.78       4.63      12.23      16.86        0.02     0.00   0.911
  3956                      18.50       0.00       0.00       1.78       4.63      12.23      16.86        0.02     0.00   0.911
  4032                      18.50       0.00       0.00       1.78       4.63      12.23      16.86        0.02     0.00   0.911
  4033                      18.50       0.00       0.00       1.78       4.63      12.23      16.86        0.02     0.00   0.911
  4041                      18.50       0.00       0.00       1.78       4.63      12.23      16.86        0.02     0.00   0.911
  4051                      18.50       0.00       0.00       1.78       4.63      12.23      16.86        0.02     0.00   0.911
  4055                      18.50       0.00       0.00       1.78       4.63      12.23      16.86        0.02     0.00   0.911
  4056                      18.50       0.00       0.00       1.78       4.63      12.23      16.86        0.02     0.00   0.911
  4058                      18.50       0.00       0.00       1.78       4.63      12.23      16.86        0.02     0.00   0.911
  4385                      18.50       0.00       0.00       1.78       4.63      12.23      16.86        0.02     0.00   0.911
  4386                      18.50       0.00       0.00       1.78       4.63      12.23      16.86        0.02     0.00   0.911
  4387                      18.50       0.00       0.00       1.78       4.63      12.23      16.86        0.02     0.00   0.911
  4388                      18.50       0.00       0.00       1.78       4.63      12.23      16.86        0.02     0.00   0.911
  4389                      18.50       0.00       0.00       1.78       4.63      12.23      16.86        0.02     0.00   0.911
  4390                      18.50       0.00       0.00       1.78       4.63      12.23      16.86        0.02     0.00   0.911
  4391                      18.50       0.00       0.00       1.78       4.63      12.23      16.86        0.02     0.00   0.911
  4392                      18.50       0.00       0.00       1.78       4.63      12.23      16.86        0.02     0.00   0.911
  4393                      18.50       0.00       0.00       1.78       4.63      12.23      16.86        0.02     0.00   0.911
  4394                      18.50       0.00       0.00       1.78       4.63      12.23      16.86        0.02     0.00   0.911
  4395                      18.50       0.00       0.00       1.78       4.63      12.23      16.86        0.02     0.00   0.911
  4396                      18.50       0.00       0.00       1.78       4.63      12.23      16.86        0.02     0.00   0.911
  4397                      18.50       0.00       0.00       1.78       4.63      12.23      16.86        0.02     0.00   0.911
  4398                      18.50       0.00       0.00       1.78       4.63      12.23      16.86        0.02     0.00   0.911
  4429                      18.50       0.00       0.00       1.78       4.63      12.23      16.86        0.02     0.00   0.911
  4430                      18.50       0.00       0.00       1.78       4.63      12.23      16.86        0.02     0.00   0.911
  4431                      18.50       0.00       0.00       1.78       4.63      12.23      16.86        0.02     0.00   0.911
  4432                      18.50       0.00       0.00       1.78       4.63      12.23      16.86        0.02     0.00   0.911
  4433                      18.50       0.00       0.00       1.78       4.63      12.23      16.86        0.02     0.00   0.911
  4434                      18.50       0.00       0.00       1.78       4.63      12.23      16.86        0.02     0.00   0.911
  4435                      18.50       0.00       0.00       1.78       4.63      12.23      16.86        0.02     0.00   0.911
  4436                      18.50       0.00       0.00       1.78       4.63      12.23      16.86        0.02     0.00   0.911
  4437                      18.50       0.00       0.00       1.78       4.63      12.23      16.86        0.02     0.00   0.911
  4438                      18.50       0.00       0.00       1.78       4.63      12.23      16.86        0.02     0.00   0.911
  4439                      18.50       0.00       0.00       1.78       4.63      12.23      16.86        0.02     0.00   0.911
  4440                      18.50       0.00       0.00       1.78       4.63      12.23      16.86        0.02     0.00   0.911
  4441                      18.50       0.00       0.00       1.78       4.63      12.23      16.86        0.02     0.00   0.911
  4442                      18.50       0.00       0.00       1.78       4.63      12.23      16.86        0.02     0.00   0.911
  4443                      18.50       0.00       0.00       1.78       4.63      12.23      16.86        0.02     0.00   0.911
  4444                      18.50       0.00       0.00       1.78       4.63      12.23      16.86        0.02     0.00   0.911
  4445                      18.50       0.00       0.00       1.78       4.63      12.23      16.86        0.02     0.00   0.911
  4446                      18.50       0.00       0.00       1.78       4.63      12.23      16.86        0.02     0.00   0.911
  4447                      18.50       0.00       0.00       1.78       4.63      12.23      16.86        0.02     0.00   0.911
  4448                      18.50       0.00       0.00       1.78       4.63      12.23      16.86        0.02     0.00   0.911
  4449                      18.50       0.00       0.00       1.78       4.63      12.23      16.86        0.02     0.00   0.911
  4450                      18.50       0.00       0.00       1.78       4.63      12.23      16.86        0.02     0.00   0.911
  4451                      18.50       0.00       0.00       1.78       4.63      12.23      16.86        0.02     0.00   0.911
  4452                      18.50       0.00       0.00       1.78       4.63      12.23      16.86        0.02     0.00   0.911
  4453                      18.50       0.00       0.00       1.78       4.63      12.23      16.86        0.02     0.00   0.911
  4454                      18.50       0.00       0.00       1.78       4.63      12.23      16.86        0.02     0.00   0.911
  4462                      18.50       0.00       0.00       1.78       4.63      12.23      16.86        0.02     0.00   0.911
  4463                      18.50       0.00       0.00       1.78       4.63      12.23      16.86        0.02     0.00   0.911
  4563                      18.50       0.00       0.00       1.78       4.63      12.23      16.86        0.02     0.00   0.911
  4564                      18.50       0.00       0.00       1.78       4.63      12.23      16.86        0.02     0.00   0.911
  4565                      18.50       0.00       0.00       1.78       4.63      12.23      16.86        0.02     0.00   0.911
  4566                      18.50       0.00       0.00       1.78       4.63      12.23      16.86        0.02     0.00   0.911
  4567                      18.50       0.00       0.00       1.78       4.63      12.23      16.86        0.02     0.00   0.911
  4568                      18.50       0.00       0.00       1.78       4.63      12.23      16.86        0.02     0.00   0.911
  4569                      18.50       0.00       0.00       1.78       4.63      12.23      16.86        0.02     0.00   0.911
  4570                      18.50       0.00       0.00       1.78       4.63      12.23      16.86        0.02     0.00   0.911
  4571                      18.50       0.00       0.00       1.78       4.63      12.23      16.86        0.02     0.00   0.911
  4572                      18.50       0.00       0.00       1.78       4.63      12.23      16.86        0.02     0.00   0.911
  4573                      18.50       0.00       0.00       1.78       4.63      12.23      16.86        0.02     0.00   0.911
  4574                      18.50       0.00       0.00       1.78       4.63      12.23      16.86        0.02     0.00   0.911
  4575                      18.50       0.00       0.00       1.78       4.63      12.23      16.86        0.02     0.00   0.911
  4576                      18.50       0.00       0.00       1.78       4.63      12.23      16.86        0.02     0.00   0.911
  4577                      18.50       0.00       0.00       1.78       4.63      12.23      16.86        0.02     0.00   0.911
  4578                      18.50       0.00       0.00       1.78       4.63      12.23      16.86        0.02     0.00   0.911
  4579                      18.50       0.00       0.00       1.78       4.63      12.23      16.86        0.02     0.00   0.911
  4580                      18.50       0.00       0.00       1.78       4.63      12.23      16.86        0.02     0.00   0.911
  4581                      18.50       0.00       0.00       1.78       4.63      12.23      16.86        0.02     0.00   0.911
  4624                      18.50       0.00       0.00       1.78       4.63      12.23      16.86        0.02     0.00   0.911
  4625                      18.50       0.00       0.00       1.78       4.63      12.23      16.86        0.02     0.00   0.911
  4644                      18.50       0.00       0.00       1.78       4.63      12.23      16.86        0.02     0.00   0.911
  4645                      18.50       0.00       0.00       1.78       4.63      12.23      16.86        0.02     0.00   0.911
  4646                      18.50       0.00       0.00       1.78       4.63      12.23      16.86        0.02     0.00   0.911
  4679                      18.50       0.00       0.00       1.78       4.63      12.23      16.86        0.02     0.00   0.911
  4680                      18.50       0.00       0.00       1.78       4.63      12.23      16.86        0.02     0.00   0.911
  4681                      18.50       0.00       0.00       1.78       4.63      12.23      16.86        0.02     0.00   0.911
  4682                      18.50       0.00       0.00       1.78       4.63      12.23      16.86        0.02     0.00   0.911
  4683                      18.50       0.00       0.00       1.78       4.63      12.23      16.86        0.02     0.00   0.911
  4711                      18.50       0.00       0.00       1.78       4.63      12.23      16.86        0.02     0.00   0.911
  4712                      18.50       0.00       0.00       1.78       4.63      12.23      16.86        0.02     0.00   0.911
  4713                      18.50       0.00       0.00       1.78       4.63      12.23      16.86        0.02     0.00   0.911
  4714                      18.50       0.00       0.00       1.78       4.63      12.23      16.86        0.02     0.00   0.911
  4715                      18.50       0.00       0.00       1.78       4.63      12.23      16.86        0.02     0.00   0.911
  4716                      18.50       0.00       0.00       1.78       4.63      12.23      16.86        0.02     0.00   0.911
  4717                      18.50       0.00       0.00       1.78       4.63      12.23      16.86        0.02     0.00   0.911
  4718                      18.50       0.00       0.00       1.78       4.63      12.23      16.86        0.02     0.00   0.911
  4722                      18.50       0.00       0.00       1.78       4.63      12.23      16.86        0.02     0.00   0.911
  4760                      18.50       0.00       0.00       1.78       4.63      12.23      16.86        0.02     0.00   0.911
  4761                      18.50       0.00       0.00       1.78       4.63      12.23      16.86        0.02     0.00   0.911
  4765                      18.50       0.00       0.00       1.78       4.63      12.23      16.86        0.02     0.00   0.911
  4766                      18.50       0.00       0.00       1.78       4.63      12.23      16.86        0.02     0.00   0.911
  4767                      18.50       0.00       0.00       1.78       4.63      12.23      16.86        0.02     0.00   0.911
  4768                      18.50       0.00       0.00       1.78       4.63      12.23      16.86        0.02     0.00   0.911
  4769                      18.50       0.00       0.00       1.78       4.63      12.23      16.86        0.02     0.00   0.911
  4855                      18.50       0.00       0.00       1.78       4.63      12.23      16.86        0.02     0.00   0.911
  4856                      18.50       0.00       0.00       1.78       4.63      12.23      16.86        0.02     0.00   0.911
  5284                      18.50       0.00       0.00       1.78       4.63      12.23      16.86        0.02     0.00   0.911
  5285                      18.50       0.00       0.00       1.78       4.63      12.23      16.86        0.02     0.00   0.911
  5286                      18.50       0.00       0.00       1.78       4.63      12.23      16.86        0.02     0.00   0.911
  5287                      18.50       0.00       0.00       1.78       4.63      12.23      16.86        0.02     0.00   0.911
  5288                      18.50       0.00       0.00       1.78       4.63      12.23      16.86        0.02     0.00   0.911
  5289                      18.50       0.00       0.00       1.78       4.63      12.23      16.86        0.02     0.00   0.911
  5290                      18.50       0.00       0.00       1.78       4.63      12.23      16.86        0.02     0.00   0.911
  5291                      18.50       0.00       0.00       1.78       4.63      12.23      16.86        0.02     0.00   0.911
  5292                      18.50       0.00       0.00       1.78       4.63      12.23      16.86        0.02     0.00   0.911
  5293                      18.50       0.00       0.00       1.78       4.63      12.23      16.86        0.02     0.00   0.911
  5294                      18.50       0.00       0.00       1.78       4.63      12.23      16.86        0.02     0.00   0.911
  5295                      18.50       0.00       0.00       1.78       4.63      12.23      16.86        0.02     0.00   0.911
  5296                      18.50       0.00       0.00       1.78       4.63      12.23      16.86        0.02     0.00   0.911
  5297                      18.50       0.00       0.00       1.78       4.63      12.23      16.86        0.02     0.00   0.911
  5298                      18.50       0.00       0.00       1.78       4.63      12.23      16.86        0.02     0.00   0.911
  5299                      18.50       0.00       0.00       1.78       4.63      12.23      16.86        0.02     0.00   0.911
  5300                      18.50       0.00       0.00       1.78       4.63      12.23      16.86        0.02     0.00   0.911
  5301                      18.50       0.00       0.00       1.78       4.63      12.23      16.86        0.02     0.00   0.911
  5302                      18.50       0.00       0.00       1.78       4.63      12.23      16.86        0.02     0.00   0.911
  5303                      18.50       0.00       0.00       1.78       4.63      12.23      16.86        0.02     0.00   0.911
  5304                      18.50       0.00       0.00       1.78       4.63      12.23      16.86        0.02     0.00   0.911
  5305                      18.50       0.00       0.00       1.78       4.63      12.23      16.86        0.02     0.00   0.911
  5306                      18.50       0.00       0.00       1.78       4.63      12.23      16.86        0.02     0.00   0.911
  5307                      18.50       0.00       0.00       1.78       4.63      12.23      16.86        0.02     0.00   0.911
  5308                      18.50       0.00       0.00       1.78       4.63      12.23      16.86        0.02     0.00   0.911
  5309                      18.50       0.00       0.00       1.78       4.63      12.23      16.86        0.02     0.00   0.911
  5310                      18.50       0.00       0.00       1.78       4.63      12.23      16.86        0.02     0.00   0.911
  5311                      18.50       0.00       0.00       1.78       4.63      12.23      16.86        0.02     0.00   0.911
  5312                      18.50       0.00       0.00       1.78       4.63      12.23      16.86        0.02     0.00   0.911
  5313                      18.50       0.00       0.00       1.78       4.63      12.23      16.86        0.02     0.00   0.911
  5314                      18.50       0.00       0.00       1.78       4.63      12.23      16.86        0.02     0.00   0.911
  5315                      18.50       0.00       0.00       1.78       4.63      12.23      16.86        0.02     0.00   0.911
  5316                      18.50       0.00       0.00       1.78       4.63      12.23      16.86        0.02     0.00   0.911
  5317                      18.50       0.00       0.00       1.78       4.63      12.23      16.86        0.02     0.00   0.911
  5318                      18.50       0.00       0.00       1.78       4.63      12.23      16.86        0.02     0.00   0.911
  5319                      18.50       0.00       0.00       1.78       4.63      12.23      16.86        0.02     0.00   0.911
  5320                      18.50       0.00       0.00       1.78       4.63      12.23      16.86        0.02     0.00   0.911
  5321                      18.50       0.00       0.00       1.78       4.63      12.23      16.86        0.02     0.00   0.911
  5322                      18.50       0.00       0.00       1.78       4.63      12.23      16.86        0.02     0.00   0.911
  5323                      18.50       0.00       0.00       1.78       4.63      12.23      16.86        0.02     0.00   0.911
  5324                      18.50       0.00       0.00       1.78       4.63      12.23      16.86        0.02     0.00   0.911
  5325                      18.50       0.00       0.00       1.78       4.63      12.23      16.86        0.02     0.00   0.911
  5326                      18.50       0.00       0.00       1.78       4.63      12.23      16.86        0.02     0.00   0.911
  5327                      18.50       0.00       0.00       1.78       4.63      12.23      16.86        0.02     0.00   0.911
  5328                      18.50       0.00       0.00       1.78       4.63      12.23      16.86        0.02     0.00   0.911
  5329                      18.50       0.00       0.00       1.78       4.63      12.23      16.86        0.02     0.00   0.911
  5330                      18.50       0.00       0.00       1.78       4.63      12.23      16.86        0.02     0.00   0.911
  5333                      18.50       0.00       0.00       1.78       4.63      12.23      16.86        0.02     0.00   0.911
  5334                      18.50       0.00       0.00       1.78       4.63      12.23      16.86        0.02     0.00   0.911
  6040                      18.50       0.00       0.00       1.78       4.63      12.23      16.86        0.02     0.00   0.911
  6041                      18.50       0.00       0.00       1.78       4.63      12.23      16.86        0.02     0.00   0.911
  6162                      18.50       0.00       0.00       1.78       4.63      12.23      16.86        0.02     0.00   0.911
  7207                      18.50       0.00       0.00       1.78       4.63      12.23      16.86        0.02     0.00   0.911
  7208                      18.50       0.00       0.00       1.78       4.63      12.23      16.86        0.02     0.00   0.911
  7213                      18.50       0.00       0.00       1.78       4.63      12.23      16.86        0.02     0.00   0.911
  7214                      18.50       0.00       0.00       1.78       4.63      12.23      16.86        0.02     0.00   0.911
  7219                      18.50       0.00       0.00       1.78       4.63      12.23      16.86        0.02     0.00   0.911
  7220                      18.50       0.00       0.00       1.78       4.63      12.23      16.86        0.02     0.00   0.911
  7221                      18.50       0.00       0.00       1.78       4.63      12.23      16.86        0.02     0.00   0.911
  7225                      18.50       0.00       0.00       1.78       4.63      12.23      16.86        0.02     0.00   0.911
  7229                      18.50       0.00       0.00       1.78       4.63      12.23      16.86        0.02     0.00   0.911
  7231                      18.50       0.00       0.00       1.78       4.63      12.23      16.86        0.02     0.00   0.911
  7268                      18.50       0.00       0.00       1.78       4.63      12.23      16.86        0.02     0.00   0.911
  7269                      18.50       0.00       0.00       1.78       4.63      12.23      16.86        0.02     0.00   0.911
  7271                      18.50       0.00       0.00       1.78       4.63      12.23      16.86        0.02     0.00   0.911
  7272                      18.50       0.00       0.00       1.78       4.63      12.23      16.86        0.02     0.00   0.911
  7273                      18.50       0.00       0.00       1.78       4.63      12.23      16.86        0.02     0.00   0.911
  7433                      18.50       0.00       0.00       1.78       4.63      12.23      16.86        0.02     0.00   0.911
  7434                      18.50       0.00       0.00       1.78       4.63      12.23      16.86        0.02     0.00   0.911
  7544                      18.50       0.00       0.00       1.78       4.63      12.23      16.86        0.02     0.00   0.911
  7545                      18.50       0.00       0.00       1.78       4.63      12.23      16.86        0.02     0.00   0.911
  8737                      18.50       0.00       0.00       1.78       4.63      12.23      16.86        0.02     0.00   0.911
  8818                      18.50       0.00       0.00       1.78       4.63      12.23      16.86        0.02     0.00   0.911
  9942                      18.50       0.00       0.00       1.78       4.63      12.23      16.86        0.02     0.00   0.911
  9957                      18.50       0.00       0.00       1.78       4.63      12.23      16.86        0.02     0.00   0.911
  4399                      18.50       0.00       0.00       1.70       4.63      12.33      16.95        0.01     0.00   0.916
  4400                      18.50       0.00       0.00       1.70       4.63      12.33      16.95        0.01     0.00   0.916
  4401                      18.50       0.00       0.00       1.70       4.63      12.33      16.95        0.01     0.00   0.916
  4402                      18.50       0.00       0.00       1.70       4.63      12.33      16.95        0.01     0.00   0.916
  4403                      18.50       0.00       0.00       1.70       4.63      12.33      16.95        0.01     0.00   0.916
  4404                      18.50       0.00       0.00       1.70       4.63      12.33      16.95        0.01     0.00   0.916
  4405                      18.50       0.00       0.00       1.70       4.63      12.33      16.95        0.01     0.00   0.916
  4406                      18.50       0.00       0.00       1.70       4.63      12.33      16.95        0.01     0.00   0.916
  4407                      18.50       0.00       0.00       1.70       4.63      12.33      16.95        0.01     0.00   0.916
  4408                      18.50       0.00       0.00       1.70       4.63      12.33      16.95        0.01     0.00   0.916
  4409                      18.50       0.00       0.00       1.70       4.63      12.33      16.95        0.01     0.00   0.916
  4410                      18.50       0.00       0.00       1.70       4.63      12.33      16.95        0.01     0.00   0.916
  4411                      18.50       0.00       0.00       1.70       4.63      12.33      16.95        0.01     0.00   0.916
  4412                      18.50       0.00       0.00       1.70       4.63      12.33      16.95        0.01     0.00   0.916
  4423                      18.50       0.00       0.00       1.70       4.63      12.33      16.95        0.01     0.00   0.916
  4424                      18.50       0.00       0.00       1.70       4.63      12.33      16.95        0.01     0.00   0.916
  4425                      18.50       0.00       0.00       1.70       4.63      12.33      16.95        0.01     0.00   0.916
  4426                      18.50       0.00       0.00       1.70       4.63      12.33      16.95        0.01     0.00   0.916
  4427                      18.50       0.00       0.00       1.70       4.63      12.33      16.95        0.01     0.00   0.916
  4428                      18.50       0.00       0.00       1.70       4.63      12.33      16.95        0.01     0.00   0.916
  4455                      18.50       0.00       0.00       1.70       4.63      12.33      16.95        0.01     0.00   0.916
  4456                      18.50       0.00       0.00       1.70       4.63      12.33      16.95        0.01     0.00   0.916
  4457                      18.50       0.00       0.00       1.70       4.63      12.33      16.95        0.01     0.00   0.916
  4458                      18.50       0.00       0.00       1.70       4.63      12.33      16.95        0.01     0.00   0.916
  4459                      18.50       0.00       0.00       1.70       4.63      12.33      16.95        0.01     0.00   0.916
  4460                      18.50       0.00       0.00       1.70       4.63      12.33      16.95        0.01     0.00   0.916
  4461                      18.50       0.00       0.00       1.70       4.63      12.33      16.95        0.01     0.00   0.916
  4464                      18.50       0.00       0.00       1.70       4.63      12.33      16.95        0.01     0.00   0.916
  4465                      18.50       0.00       0.00       1.70       4.63      12.33      16.95        0.01     0.00   0.916
  4466                      18.50       0.00       0.00       1.70       4.63      12.33      16.95        0.01     0.00   0.916
  4467                      18.50       0.00       0.00       1.70       4.63      12.33      16.95        0.01     0.00   0.916
  4468                      18.50       0.00       0.00       1.70       4.63      12.33      16.95        0.01     0.00   0.916
  4469                      18.50       0.00       0.00       1.70       4.63      12.33      16.95        0.01     0.00   0.916
  4470                      18.50       0.00       0.00       1.70       4.63      12.33      16.95        0.01     0.00   0.916
  4471                      18.50       0.00       0.00       1.70       4.63      12.33      16.95        0.01     0.00   0.916
  4472                      18.50       0.00       0.00       1.70       4.63      12.33      16.95        0.01     0.00   0.916
  4473                      18.50       0.00       0.00       1.70       4.63      12.33      16.95        0.01     0.00   0.916
  4474                      18.50       0.00       0.00       1.70       4.63      12.33      16.95        0.01     0.00   0.916
  4628                      18.50       0.00       0.00       1.70       4.63      12.33      16.95        0.01     0.00   0.916
  4631                      18.50       0.00       0.00       1.70       4.63      12.33      16.95        0.01     0.00   0.916
  4632                      18.50       0.00       0.00       1.70       4.63      12.33      16.95        0.01     0.00   0.916
  4633                      18.50       0.00       0.00       1.70       4.63      12.33      16.95        0.01     0.00   0.916
  4634                      18.50       0.00       0.00       1.70       4.63      12.33      16.95        0.01     0.00   0.916
  4637                      18.50       0.00       0.00       1.70       4.63      12.33      16.95        0.01     0.00   0.916
  4686                      18.50       0.00       0.00       1.70       4.63      12.33      16.95        0.01     0.00   0.916
  4687                      18.50       0.00       0.00       1.70       4.63      12.33      16.95        0.01     0.00   0.916
  4688                      18.50       0.00       0.00       1.70       4.63      12.33      16.95        0.01     0.00   0.916
  5032                      18.50       0.00       0.00       1.70       4.63      12.33      16.95        0.01     0.00   0.916
  5331                      18.50       0.00       0.00       1.70       4.63      12.33      16.95        0.01     0.00   0.916
  5332                      18.50       0.00       0.00       1.70       4.63      12.33      16.95        0.01     0.00   0.916
  5335                      18.50       0.00       0.00       1.70       4.63      12.33      16.95        0.01     0.00   0.916
  5336                      18.50       0.00       0.00       1.70       4.63      12.33      16.95        0.01     0.00   0.916
  5337                      18.50       0.00       0.00       1.70       4.63      12.33      16.95        0.01     0.00   0.916
  5338                      18.50       0.00       0.00       1.70       4.63      12.33      16.95        0.01     0.00   0.916
  5339                      18.50       0.00       0.00       1.70       4.63      12.33      16.95        0.01     0.00   0.916
  5340                      18.50       0.00       0.00       1.70       4.63      12.33      16.95        0.01     0.00   0.916
  5341                      18.50       0.00       0.00       1.70       4.63      12.33      16.95        0.01     0.00   0.916
  5342                      18.50       0.00       0.00       1.70       4.63      12.33      16.95        0.01     0.00   0.916
  5343                      18.50       0.00       0.00       1.70       4.63      12.33      16.95        0.01     0.00   0.916
  5344                      18.50       0.00       0.00       1.70       4.63      12.33      16.95        0.01     0.00   0.916
  5345                      18.50       0.00       0.00       1.70       4.63      12.33      16.95        0.01     0.00   0.916
  5346                      18.50       0.00       0.00       1.70       4.63      12.33      16.95        0.01     0.00   0.916
  5347                      18.50       0.00       0.00       1.70       4.63      12.33      16.95        0.01     0.00   0.916
  5348                      18.50       0.00       0.00       1.70       4.63      12.33      16.95        0.01     0.00   0.916
  5349                      18.50       0.00       0.00       1.70       4.63      12.33      16.95        0.01     0.00   0.916
  5350                      18.50       0.00       0.00       1.70       4.63      12.33      16.95        0.01     0.00   0.916
  6088                      18.50       0.00       0.00       1.70       4.63      12.33      16.95        0.01     0.00   0.916
  7275                      18.50       0.00       0.00       1.70       4.63      12.33      16.95        0.01     0.00   0.916
  9955                      18.50       0.00       0.00       1.70       4.63      12.33      16.95        0.01     0.00   0.916
  9956                      18.50       0.00       0.00       1.70       4.63      12.33      16.95        0.01     0.00   0.916
  
  
  ****************************
  Subcatchment Washoff Summary
  ****************************
  
  ----------------------------------
                                 COD
  Subcatchment                    kg
  ----------------------------------
  2707                         4.435
  2708                         4.435
  2709                         4.435
  2710                         4.435
  2712                         4.435
  2713                         4.435
  2714                         4.435
  2715                         4.435
  2716                         4.435
  2717                         4.435
  2718                         4.435
  2719                         4.435
  2721                         4.435
  2722                         4.435
  2723                         4.435
  2724                         4.435
  2725                         4.435
  2726                         4.435
  2727                         4.435
  2728                         4.435
  2729                         4.435
  2730                         4.435
  2731                         4.435
  2732                         4.435
  2733                         4.435
  2734                         4.435
  2735                         4.435
  2736                         4.435
  2737                         4.435
  2738                         4.435
  2739                         4.435
  2740                         4.435
  2741                         4.435
  2742                         4.435
  2743                         4.435
  2744                         4.435
  2745                         4.435
  2746                         4.435
  2747                         4.435
  2748                         4.435
  2749                         4.435
  2750                         4.435
  2751                         4.435
  2752                         4.435
  2753                         4.435
  2754                         4.435
  2755                         4.435
  2756                         4.435
  2964                         4.435
  2969                         4.435
  2970                         4.435
  2974                         4.435
  2975                         4.435
  2976                         4.435
  2977                         4.435
  2978                         4.435
  2979                         4.435
  2980                         4.435
  2981                         4.435
  2982                         4.435
  2984                         4.435
  2985                         4.435
  3925                         4.435
  3926                         4.435
  3927                         4.435
  3928                         4.435
  3929                         4.435
  3930                         4.435
  3931                         4.435
  3932                         4.435
  3933                         4.435
  3934                         4.435
  3935                         4.435
  3936                         4.435
  3937                         4.435
  3938                         4.435
  3939                         4.435
  3940                         4.435
  3941                         4.435
  3942                         4.435
  3943                         4.435
  3944                         4.435
  3945                         4.435
  3946                         4.435
  3947                         4.435
  3948                         4.435
  3949                         4.435
  3950                         4.435
  3951                         4.435
  3952                         4.435
  3953                         4.435
  3954                         4.435
  3955                         4.435
  3956                         4.435
  4032                         4.435
  4033                         4.435
  4041                         4.435
  4051                         4.435
  4055                         4.435
  4056                         4.435
  4058                         4.435
  4385                         4.435
  4386                         4.435
  4387                         4.435
  4388                         4.435
  4389                         4.435
  4390                         4.435
  4391                         4.435
  4392                         4.435
  4393                         4.435
  4394                         4.435
  4395                         4.435
  4396                         4.435
  4397                         4.435
  4398                         4.435
  4429                         4.435
  4430                         4.435
  4431                         4.435
  4432                         4.435
  4433                         4.435
  4434                         4.435
  4435                         4.435
  4436                         4.435
  4437                         4.435
  4438                         4.435
  4439                         4.435
  4440                         4.435
  4441                         4.435
  4442                         4.435
  4443                         4.435
  4444                         4.435
  4445                         4.435
  4446                         4.435
  4447                         4.435
  4448                         4.435
  4449                         4.435
  4450                         4.435
  4451                         4.435
  4452                         4.435
  4453                         4.435
  4454                         4.435
  4462                         4.435
  4463                         4.435
  4563                         4.435
  4564                         4.435
  4565                         4.435
  4566                         4.435
  4567                         4.435
  4568                         4.435
  4569                         4.435
  4570                         4.435
  4571                         4.435
  4572                         4.435
  4573                         4.435
  4574                         4.435
  4575                         4.435
  4576                         4.435
  4577                         4.435
  4578                         4.435
  4579                         4.435
  4580                         4.435
  4581                         4.435
  4624                         4.435
  4625                         4.435
  4644                         4.435
  4645                         4.435
  4646                         4.435
  4679                         4.435
  4680                         4.435
  4681                         4.435
  4682                         4.435
  4683                         4.435
  4711                         4.435
  4712                         4.435
  4713                         4.435
  4714                         4.435
  4715                         4.435
  4716                         4.435
  4717                         4.435
  4718                         4.435
  4722                         4.435
  4760                         4.435
  4761                         4.435
  4765                         4.435
  4766                         4.435
  4767                         4.435
  4768                         4.435
  4769                         4.435
  4855                         4.435
  4856                         4.435
  5284                         4.435
  5285                         4.435
  5286                         4.435
  5287                         4.435
  5288                         4.435
  5289                         4.435
  5290                         4.435
  5291                         4.435
  5292                         4.435
  5293                         4.435
  5294                         4.435
  5295                         4.435
  5296                         4.435
  5297                         4.435
  5298                         4.435
  5299                         4.435
  5300                         4.435
  5301                         4.435
  5302                         4.435
  5303                         4.435
  5304                         4.435
  5305                         4.435
  5306                         4.435
  5307                         4.435
  5308                         4.435
  5309                         4.435
  5310                         4.435
  5311                         4.435
  5312                         4.435
  5313                         4.435
  5314                         4.435
  5315                         4.435
  5316                         4.435
  5317                         4.435
  5318                         4.435
  5319                         4.435
  5320                         4.435
  5321                         4.435
  5322                         4.435
  5323                         4.435
  5324                         4.435
  5325                         4.435
  5326                         4.435
  5327                         4.435
  5328                         4.435
  5329                         4.435
  5330                         4.435
  5333                         4.435
  5334                         4.435
  6040                         4.435
  6041                         4.435
  6162                         4.435
  7207                         4.435
  7208                         4.435
  7213                         4.435
  7214                         4.435
  7219                         4.435
  7220                         4.435
  7221                         4.435
  7225                         4.435
  7229                         4.435
  7231                         4.435
  7268                         4.435
  7269                         4.435
  7271                         4.435
  7272                         4.435
  7273                         4.435
  7433                         4.435
  7434                         4.435
  7544                         4.435
  7545                         4.435
  8737                         4.435
  8818                         4.435
  9942                         4.435
  9957                         4.435
  4399                         1.338
  4400                         1.338
  4401                         1.338
  4402                         1.338
  4403                         1.338
  4404                         1.338
  4405                         1.338
  4406                         1.338
  4407                         1.338
  4408                         1.338
  4409                         1.338
  4410                         1.338
  4411                         1.338
  4412                         1.338
  4423                         1.338
  4424                         1.338
  4425                         1.338
  4426                         1.338
  4427                         1.338
  4428                         1.338
  4455                         1.338
  4456                         1.338
  4457                         1.338
  4458                         1.338
  4459                         1.338
  4460                         1.338
  4461                         1.338
  4464                         1.338
  4465                         1.338
  4466                         1.338
  4467                         1.338
  4468                         1.338
  4469                         1.338
  4470                         1.338
  4471                         1.338
  4472                         1.338
  4473                         1.338
  4474                         1.338
  4628                         1.338
  4631                         1.338
  4632                         1.338
  4633                         1.338
  4634                         1.338
  4637                         1.338
  4686                         1.338
  4687                         1.338
  4688                         1.338
  5032                         1.338
  5331                         1.338
  5332                         1.338
  5335                         1.338
  5336                         1.338
  5337                         1.338
  5338                         1.338
  5339                         1.338
  5340                         1.338
  5341                         1.338
  5342                         1.338
  5343                         1.338
  5344                         1.338
  5345                         1.338
  5346                         1.338
  5347                         1.338
  5348                         1.338
  5349                         1.338
  5350                         1.338
  6088                         1.338
  7275                         1.338
  9955                         1.338
  9956                         1.338
  ----------------------------------
  System                    1268.831
  
  
  ******************
  Node Depth Summary
  ******************
  
  ---------------------------------------------------------------------------------
                                 Average  Maximum  Maximum  Time of Max    Reported
                                   Depth    Depth      HGL   Occurrence   Max Depth
  Node                 Type       Meters   Meters   Meters  days hr:min      Meters
  ---------------------------------------------------------------------------------
  Node_02706           JUNCTION     2.29     4.35   101.19     0  04:14        0.00
  Node_02707           JUNCTION     0.55     2.29   101.72     0  04:16        0.00
  Node_02708           JUNCTION     0.55     2.12   101.87     0  04:15        0.00
  Node_02709           JUNCTION     0.63     2.32   101.95     0  04:15        0.00
  Node_02711           JUNCTION     0.29     2.03   101.94     0  04:15        0.00
  Node_02712           JUNCTION     0.29     2.01   101.91     0  04:15        0.00
  Node_02713           JUNCTION     0.34     2.02   101.87     0  04:15        0.00
  Node_02714           JUNCTION     0.11     1.48   101.88     0  04:15        0.00
  Node_02715           JUNCTION     0.33     1.91   101.72     0  04:15        0.00
  Node_02716           JUNCTION     0.36     1.92   101.63     0  04:16        0.00
  Node_02717           JUNCTION     0.41     2.00   101.64     0  04:16        0.00
  Node_02718           JUNCTION     0.41     2.09   101.69     0  04:16        0.00
  Node_02720           JUNCTION     0.42     2.15   101.72     0  04:16        0.00
  Node_02721           JUNCTION     0.71     2.50   101.74     0  04:16        0.00
  Node_02722           JUNCTION     0.13     0.16   101.96     0  04:15        0.00
  Node_02723           JUNCTION     0.64     2.42   101.72     0  04:16        0.00
  Node_02724           JUNCTION     0.48     2.25   101.67     0  04:16        0.00
  Node_02725           JUNCTION     0.50     2.25   101.62     0  04:16        0.00
  Node_02726           JUNCTION     0.56     2.30   101.56     0  04:16        0.00
  Node_02727           JUNCTION     0.65     2.37   101.50     0  04:16        0.00
  Node_02728           JUNCTION     0.24     1.42   101.50     0  04:16        0.00
  Node_02729           JUNCTION     0.68     2.37   101.43     0  04:16        0.00
  Node_02730           JUNCTION     0.69     2.33   101.35     0  04:16        0.00
  Node_02731           JUNCTION     1.11     2.67   101.26     0  04:16        0.00
  Node_02732           JUNCTION     0.68     2.19   101.21     0  04:15        0.00
  Node_02733           JUNCTION     0.67     2.23   101.23     0  04:16        0.00
  Node_02734           JUNCTION     0.95     2.54   101.25     0  04:16        0.00
  Node_02735           JUNCTION     0.85     2.44   101.25     0  04:16        0.00
  Node_02736           JUNCTION     1.03     2.64   101.25     0  04:16        0.00
  Node_02737           JUNCTION     1.01     2.63   101.25     0  04:16        0.00
  Node_02738           JUNCTION     0.84     2.49   101.26     0  04:13        0.00
  Node_02739           JUNCTION     0.71     2.45   101.32     0  04:13        0.00
  Node_02740           JUNCTION     0.71     2.50   101.34     0  04:13        0.00
  Node_02741           JUNCTION     0.45     2.06   101.35     0  04:13        0.00
  Node_02742           JUNCTION     0.72     2.54   101.35     0  04:13        0.00
  Node_02743           JUNCTION     1.14     2.98   101.35     0  04:13        0.00
  Node_02744           JUNCTION     0.42     2.02   101.36     0  04:13        0.00
  Node_02745           JUNCTION     0.87     2.72   101.34     0  04:13        0.00
  Node_02746           JUNCTION     0.76     2.63   101.32     0  04:13        0.00
  Node_02747           JUNCTION     0.09     0.98   101.34     0  04:13        0.00
  Node_02748           JUNCTION     0.06     0.89   101.34     0  04:13        0.00
  Node_02749           JUNCTION     0.78     2.61   101.25     0  04:13        0.00
  Node_02750           JUNCTION     0.78     2.58   101.19     0  04:13        0.00
  Node_02751           JUNCTION     0.76     2.57   101.16     0  04:16        0.00
  Node_02752           JUNCTION     0.77     2.61   101.16     0  04:13        0.00
  Node_02753           JUNCTION     0.79     2.70   101.18     0  04:14        0.00
  Node_02754           JUNCTION     0.81     2.87   101.19     0  04:14        0.00
  Node_02755           JUNCTION     1.74     3.80   101.19     0  04:14        0.00
  Node_02963           JUNCTION     0.29     1.73   101.64     0  04:16        0.00
  Node_02968           JUNCTION     0.19     1.21   101.33     0  04:13        0.00
  Node_02969           JUNCTION     0.25     1.48   101.36     0  04:13        0.00
  Node_02973           JUNCTION     1.27     3.30   101.19     0  04:14        0.00
  Node_02974           JUNCTION     1.60     3.89   101.02     0  04:24        0.00
  Node_02975           JUNCTION     1.60     3.89   101.03     0  04:22        0.00
  Node_02976           JUNCTION     1.60     3.88   101.07     0  04:14        0.00
  Node_02977           JUNCTION     1.54     3.88   101.21     0  04:14        0.00
  Node_02978           JUNCTION     1.41     3.76   101.29     0  04:14        0.00
  Node_02979           JUNCTION     1.57     3.89   101.00     0  04:24        0.00
  Node_02980           JUNCTION     1.54     3.90   100.99     0  04:22        0.00
  Node_02981           JUNCTION     1.59     4.02   100.97     0  04:24        0.00
  Node_02983           JUNCTION     0.19     1.15   101.27     0  04:13        0.00
  Node_02984           JUNCTION     1.88     4.21   101.19     0  04:14        0.00
  Node_03924           JUNCTION     0.03     0.49   101.31     0  04:26        0.00
  Node_03925           JUNCTION     0.25     0.75   101.12     0  04:27        0.00
  Node_03926           JUNCTION     0.01     0.02   101.49     0  04:15        0.00
  Node_03927           JUNCTION     0.23     0.74   101.12     0  04:28        0.00
  Node_03928           JUNCTION     0.25     0.77   101.12     0  04:28        0.00
  Node_03929           JUNCTION     0.25     0.79   101.10     0  04:27        0.00
  Node_03930           JUNCTION     0.27     0.83   101.08     0  04:27        0.00
  Node_03931           JUNCTION     0.26     0.83   101.08     0  04:27        0.00
  Node_03932           JUNCTION     0.29     0.89   101.05     0  04:27        0.00
  Node_03933           JUNCTION     0.29     0.91   101.03     0  04:27        0.00
  Node_03934           JUNCTION     0.05     0.17   101.03     0  04:28        0.00
  Node_03935           JUNCTION     0.34     1.05   101.03     0  04:27        0.00
  Node_03936           JUNCTION     0.37     1.11   101.04     0  04:26        0.00
  Node_03937           JUNCTION     1.21     1.22   101.38     0  04:15        0.00
  Node_03938           JUNCTION     1.36     3.06   102.25     0  04:14        0.00
  Node_03939           JUNCTION     1.48     3.21   102.25     0  04:12        0.00
  Node_03940           JUNCTION     1.56     3.32   102.24     0  04:09        0.00
  Node_03941           JUNCTION     1.66     3.43   102.23     0  04:07        0.00
  Node_03942           JUNCTION     1.70     3.47   102.22     0  04:11        0.00
  Node_03943           JUNCTION     1.80     3.58   102.19     0  04:02        0.00
  Node_03944           JUNCTION     1.91     3.69   102.17     0  03:58        0.00
  Node_03945           JUNCTION     1.96     3.78   102.20     0  04:14        0.00
  Node_03946           JUNCTION     2.02     3.84   102.20     0  04:15        0.00
  Node_03947           JUNCTION     2.28     4.27   102.16     0  04:14        0.00
  Node_03948           JUNCTION     2.22     4.28   102.13     0  04:15        0.00
  Node_03949           JUNCTION     2.31     4.41   102.11     0  04:14        0.00
  Node_03950           JUNCTION     2.16     4.30   102.07     0  04:15        0.00
  Node_03951           JUNCTION     2.13     4.31   102.00     0  04:15        0.00
  Node_03952           JUNCTION     2.11     4.34   101.93     0  04:15        0.00
  Node_03953           JUNCTION     2.00     4.25   101.83     0  04:15        0.00
  Node_03954           JUNCTION     2.87     5.11   101.69     0  04:15        0.00
  Node_03955           JUNCTION     1.81     4.04   101.53     0  04:15        0.00
  Node_04031           JUNCTION     0.16     0.96   102.19     0  04:15        0.00
  Node_04032           JUNCTION     1.94     3.84   102.19     0  04:15        0.00
  Node_04040           JUNCTION     0.55     1.64   102.19     0  04:09        0.00
  Node_04050           JUNCTION     0.26     1.59   102.56     0  04:26        0.00
  Node_04054           JUNCTION     0.02     0.04   101.18     0  01:30        0.00
  Node_04055           JUNCTION     0.14     0.24   101.05     0  04:28        0.00
  Node_04057           JUNCTION     0.08     0.75   101.06     0  04:26        0.00
  Node_04384           JUNCTION     1.51     3.88   101.46     0  04:14        0.00
  Node_04385           JUNCTION     1.20     3.60   101.52     0  04:14        0.00
  Node_04386           JUNCTION     1.19     3.60   101.54     0  04:14        0.00
  Node_04387           JUNCTION     1.18     3.60   101.57     0  04:14        0.00
  Node_04388           JUNCTION     1.16     3.60   101.60     0  04:14        0.00
  Node_04389           JUNCTION     0.17     1.25   101.62     0  04:14        0.00
  Node_04390           JUNCTION     1.16     3.59   101.61     0  04:14        0.00
  Node_04391           JUNCTION     1.14     3.58   101.64     0  04:14        0.00
  Node_04392           JUNCTION     1.25     3.69   101.65     0  04:14        0.00
  Node_04393           JUNCTION     1.12     3.55   101.66     0  04:14        0.00
  Node_04394           JUNCTION     0.29     2.02   101.66     0  04:14        0.00
  Node_04395           JUNCTION     1.10     3.52   101.68     0  04:14        0.00
  Node_04396           JUNCTION     1.07     3.49   101.69     0  04:14        0.00
  Node_04397           JUNCTION     0.17     1.79   101.69     0  04:14        0.00
  Node_04428           JUNCTION     1.07     3.47   101.69     0  04:14        0.00
  Node_04429           JUNCTION     1.06     3.44   101.69     0  04:14        0.00
  Node_04430           JUNCTION     1.04     3.41   101.69     0  04:14        0.00
  Node_04431           JUNCTION     0.83     3.11   101.68     0  04:14        0.00
  Node_04432           JUNCTION     0.75     3.00   101.68     0  04:15        0.00
  Node_04433           JUNCTION     0.59     2.79   101.67     0  04:14        0.00
  Node_04434           JUNCTION     0.87     3.08   101.67     0  04:15        0.00
  Node_04435           JUNCTION     0.73     2.88   101.66     0  04:15        0.00
  Node_04436           JUNCTION     1.13     3.25   101.65     0  04:15        0.00
  Node_04437           JUNCTION     1.28     3.35   101.64     0  04:15        0.00
  Node_04438           JUNCTION     1.58     3.65   101.66     0  04:15        0.00
  Node_04439           JUNCTION     0.64     2.70   101.67     0  04:15        0.00
  Node_04440           JUNCTION     0.64     2.67   101.68     0  04:15        0.00
  Node_04441           JUNCTION     0.41     2.35   101.68     0  04:15        0.00
  Node_04442           JUNCTION     0.71     2.72   101.69     0  04:15        0.00
  Node_04443           JUNCTION     0.57     2.57   101.70     0  04:15        0.00
  Node_04444           JUNCTION     0.57     2.54   101.71     0  04:15        0.00
  Node_04445           JUNCTION     0.51     2.47   101.74     0  04:15        0.00
  Node_04446           JUNCTION     0.49     2.42   101.75     0  04:15        0.00
  Node_04447           JUNCTION     0.45     2.33   101.78     0  04:11        0.00
  Node_04448           JUNCTION     0.47     2.35   101.80     0  04:11        0.00
  Node_04449           JUNCTION     0.49     2.36   101.82     0  04:11        0.00
  Node_04450           JUNCTION     0.64     2.53   101.85     0  04:11        0.00
  Node_04451           JUNCTION     0.46     2.34   101.88     0  04:11        0.00
  Node_04452           JUNCTION     0.24     2.06   101.88     0  04:11        0.00
  Node_04453           JUNCTION     0.12     1.66   101.88     0  04:11        0.00
  Node_04461           JUNCTION     0.43     2.27   101.89     0  04:11        0.00
  Node_04462           JUNCTION     0.43     2.25   101.90     0  04:11        0.00
  Node_04562           JUNCTION     0.30     2.46   102.05     0  04:11        0.00
  Node_04563           JUNCTION     0.61     2.92   102.04     0  04:11        0.00
  Node_04564           JUNCTION     0.40     2.66   102.04     0  04:11        0.00
  Node_04565           JUNCTION     0.41     2.68   102.04     0  04:11        0.00
  Node_04566           JUNCTION     0.53     2.84   102.03     0  04:11        0.00
  Node_04567           JUNCTION     0.48     2.80   102.02     0  04:11        0.00
  Node_04568           JUNCTION     0.48     2.81   102.00     0  04:11        0.00
  Node_04569           JUNCTION     0.61     3.01   101.98     0  04:11        0.00
  Node_04570           JUNCTION     0.28     2.24   101.98     0  04:11        0.00
  Node_04571           JUNCTION     0.62     2.99   101.92     0  04:11        0.00
  Node_04572           JUNCTION     2.00     4.40   101.93     0  04:14        0.00
  Node_04573           JUNCTION     1.67     4.08   101.92     0  04:14        0.00
  Node_04574           JUNCTION     2.20     3.60   101.90     0  04:15        0.00
  Node_04575           JUNCTION     2.15     4.59   101.90     0  04:15        0.00
  Node_04576           JUNCTION     0.77     3.22   101.87     0  04:14        0.00
  Node_04577           JUNCTION     0.80     3.26   101.84     0  04:14        0.00
  Node_04578           JUNCTION     0.85     3.30   101.80     0  04:15        0.00
  Node_04579           JUNCTION     0.92     3.35   101.76     0  04:14        0.00
  Node_04580           JUNCTION     0.24     1.98   101.76     0  04:11        0.00
  Node_04623           JUNCTION     0.26     1.85   101.52     0  04:14        0.00
  Node_04624           JUNCTION     0.35     2.23   101.69     0  04:14        0.00
  Node_04643           JUNCTION     0.21     1.91   101.82     0  04:11        0.00
  Node_04644           JUNCTION     0.22     1.88   101.72     0  04:15        0.00
  Node_04645           JUNCTION     0.41     2.05   101.65     0  04:10        0.00
  Node_04678           JUNCTION     0.25     1.97   101.69     0  04:14        0.00
  Node_04679           JUNCTION     0.11     1.33   101.52     0  04:14        0.00
  Node_04680           JUNCTION     1.30     3.65   101.42     0  04:14        0.00
  Node_04681           JUNCTION     1.30     3.65   101.37     0  04:14        0.00
  Node_04682           JUNCTION     0.06     0.91   101.92     0  04:14        0.00
  Node_04710           JUNCTION     0.38     2.12   102.11     0  04:50        0.00
  Node_04711           JUNCTION     0.42     2.61   102.60     0  05:31        0.00
  Node_04712           JUNCTION     0.42     2.61   102.62     0  04:36        0.00
  Node_04713           JUNCTION     0.38     2.58   102.63     0  04:11        0.00
  Node_04714           JUNCTION     0.43     2.60   102.65     0  04:44        0.00
  Node_04715           JUNCTION     0.38     2.52   102.61     0  04:12        0.00
  Node_04716           JUNCTION     0.40     2.46   102.59     0  04:52        0.00
  Node_04717           JUNCTION     0.20     1.60   101.90     0  04:12        0.00
  Node_04721           JUNCTION     0.18     1.58   101.93     0  04:15        0.00
  Node_04759           JUNCTION     0.20     1.69   101.87     0  04:14        0.00
  Node_04760           JUNCTION     0.31     1.56   101.02     0  04:24        0.00
  Node_04764           JUNCTION     0.28     1.59   101.51     0  04:10        0.00
  Node_04765           JUNCTION     0.15     1.47   101.89     0  04:11        0.00
  Node_04766           JUNCTION     0.33     2.21   101.98     0  04:11        0.00
  Node_04767           JUNCTION     0.31     2.22   102.05     0  04:11        0.00
  Node_04768           JUNCTION     0.34     2.34   102.00     0  04:11        0.00
  Node_04854           JUNCTION     0.08     1.20   101.64     0  04:14        0.00
  Node_04855           JUNCTION     0.60     1.98   101.90     0  04:15        0.00
  Node_05283           JUNCTION     1.83     3.59   102.21     0  04:15        0.00
  Node_05284           JUNCTION     1.81     3.56   102.22     0  04:14        0.00
  Node_05285           JUNCTION     1.76     3.47   102.22     0  04:01        0.00
  Node_05286           JUNCTION     1.73     3.42   102.22     0  04:01        0.00
  Node_05287           JUNCTION     1.70     3.40   102.26     0  04:15        0.00
  Node_05288           JUNCTION     1.69     3.38   102.26     0  04:11        0.00
  Node_05289           JUNCTION     1.15     2.70   102.22     0  04:02        0.00
  Node_05290           JUNCTION     1.68     3.38   102.27     0  04:14        0.00
  Node_05291           JUNCTION     1.46     3.10   102.30     0  04:14        0.00
  Node_05292           JUNCTION     1.42     3.06   102.31     0  04:11        0.00
  Node_05293           JUNCTION     1.41     3.05   102.30     0  04:05        0.00
  Node_05294           JUNCTION     1.38     3.00   102.31     0  04:14        0.00
  Node_05295           JUNCTION     1.41     3.04   102.31     0  04:13        0.00
  Node_05296           JUNCTION     1.39     2.99   102.31     0  04:09        0.00
  Node_05297           JUNCTION     1.18     2.75   102.26     0  04:14        0.00
  Node_05298           JUNCTION     1.34     2.93   102.32     0  04:05        0.00
  Node_05299           JUNCTION     1.33     2.91   102.31     0  04:05        0.00
  Node_05300           JUNCTION     1.30     2.86   102.31     0  04:04        0.00
  Node_05301           JUNCTION     1.26     2.82   102.32     0  04:11        0.00
  Node_05302           JUNCTION     1.26     2.81   102.32     0  04:09        0.00
  Node_05303           JUNCTION     1.23     2.77   102.31     0  04:10        0.00
[...]
  Link_02112                  1.19      1.19      1.21      0.01         0.15
  Link_02139                  0.01      0.01      0.01      0.40         0.01
  Link_02383                  1.59      1.59      1.95      0.01         0.01
  Link_02384                  1.95      1.95      2.05      0.01         0.01
  Link_02385                  2.06      2.06      2.06      0.01         0.06
  Link_02386                  0.87      0.87      1.02      0.01         0.01
  Link_02387                  2.07      2.07      2.11      0.01         0.01
  Link_02388                  2.12      2.12      2.14      0.01         0.01
  Link_02389                  1.36      1.36      2.05      0.01         0.01
  Link_02390                  2.15      2.15      2.17      0.01         0.01
  Link_02391                  2.17      2.17      2.35      0.01         0.01
  Link_02392                  1.34      1.34      1.52      0.01         0.01
  Link_02393                  2.35      2.35      2.38      0.01         0.01
  Link_05459                  1.77      1.77      1.79      0.04         0.01
  Link_05460                  1.85      1.85      1.86      0.01         0.01
  Link_05461                  1.95      1.95      1.96      0.01         0.07
  Link_05462                  2.05      2.05      2.08      0.57         0.59
  Link_05463                  2.24      2.24      2.27      0.69         0.71
  Link_05464                  2.60      2.60      2.62      0.01         0.95
  Link_05496                  4.45      4.47      4.45      2.22         2.13
  Link_05662                  0.14      0.14      0.19      0.01         0.01
  Link_05663                  0.71      0.71      1.29      0.01         0.01
  Link_05664                  4.62      4.62      4.62      0.01         0.02
  Link_05665                  4.60      4.68      4.60      4.41         3.98
  Link_05677                  4.62      4.62      4.62      3.86         3.70
  Link_05678                  1.01      1.01      1.06      0.01         0.01
  Link_05720                  3.40      3.46      3.52      0.92         0.32
  Link_05721                  3.14      3.16      3.26      0.69         0.47
  Link_05722                  1.39      1.39      1.44      0.01         0.01
  Link_05726                  2.46      2.46      2.56      0.01         0.01
  Link_05727                  2.46      2.46      2.47      0.01         0.02
  Link_05728                  2.14      2.14      2.17      0.01         0.01
  Link_05729                  1.52      1.52      1.53      0.18         0.35
  Link_05742                  1.04      1.04      1.16      0.01         0.01
  Link_05743                  2.38      2.38      2.41      0.01         0.01
  Link_05744                  3.30      3.30      4.10      0.01         0.01
  Link_05752                  0.67      0.67      0.70      0.14         0.01
  Link_05812                  4.53      4.53      4.55      0.01         0.01
  Link_05813                  4.27      4.27      4.34      0.01         0.01
  Link_05814                  3.88      3.88      3.96      0.01         0.01
  Link_05815                  3.42      3.42      3.66      0.01         0.01
  Link_05983                  0.42      0.42      0.65      0.01         0.01
  Link_05984                  0.23      0.23      0.31      0.01         0.01
  Link_07220                  0.72      0.72      0.75      0.11         0.13
  Link_07221                  0.74      0.75      0.75      0.45         0.48
  Link_07222                  0.74      0.75      0.76      0.51         0.50
  Link_07230                  0.70      0.76      0.73      0.44         0.40
  Link_07231                  0.58      0.73      0.59      0.55         0.31
  Link_07233                  0.96      1.11      0.96      1.14         0.66
  Link_07234                  1.00      1.00      1.00      3.89         0.93
  Link_07235                  1.17      1.17      1.23      0.01         0.01
  Link_07270                  0.07      0.07      0.14      0.01         0.01
  Link_07271                  0.14      0.14      0.28      0.01         0.03
  Link_07277                  0.34      0.35      0.45      0.03         0.06
  Link_07278                  0.44      0.48      0.49      0.05         0.07
  Link_07295                  0.47      0.48      0.69      0.09         0.08
  Link_07296                  0.69      0.69      0.72      0.33         0.20
  Link_07297                  0.72      0.72      0.72      0.47         0.44
  Link_07303                  0.44      0.44      0.47      0.01         0.01
  Link_07306                  0.05      0.05      0.27      0.01         0.01
  Link_07464                  4.07      4.07      4.09      0.01         0.01
  Link_07578                  0.69      0.69      0.83      0.01         0.01
  Link_07579                  1.31      1.31      1.47      0.01         0.01
  Link_07580                  1.16      1.16      1.31      0.01         0.01
  Link_07687                  4.52      4.52      4.52      0.01         0.01
  Link_08891                  0.36      0.36      0.95      0.01         0.01
  Link_08912                  0.59      0.59      1.38      0.01         0.01
  Link1_to_ChengXi            3.90      3.90      3.94      0.01         0.01
  Link2_to_ChengXi            3.81      4.87      3.81      4.30         3.12
  Link3_to_ChengXi            0.86      1.10      1.03      0.53         0.19
  
  
  ***************
  Pumping Summary
  ***************
  
  ---------------------------------------------------------------------------------------------------------
                                                  Min       Avg       Max     Total     Power    % Time Off
                        Percent   Number of      Flow      Flow      Flow    Volume     Usage    Pump Curve
  Pump                 Utilized   Start-Ups       CMS       CMS       CMS  10^6 ltr     Kw-hr    Low   High
  ---------------------------------------------------------------------------------------------------------
  Pump_ChengXi1           81.20         271      0.00      0.17      0.17     2.929     20.65    0.0    0.0
  Pump_ChengXi2           45.23         279      0.00      0.17      0.17     1.631     13.85    0.0    0.0
  Pump_ChengXi3           21.92         108      0.00      0.17      0.17     0.791      8.27    0.0    0.0
  Pump_ChengXi4            8.96          46      0.00      0.17      0.17     0.323      2.47    0.0    0.0
  Pump_LaoDongLu1         81.94          10      0.00      0.02      0.03     0.402      6.78    0.0    0.0
  Pump_LaoDongLu2         47.22          15      0.00      0.02      0.03     0.237      4.12    0.0    0.0
  Pump_LaoDongLu3         22.22          11      0.00      0.02      0.03     0.111      2.03    0.0    0.0
  outfallpump             95.88          11      0.00      0.27      0.45     5.508     93.74    0.0    0.0
  
  
  ***************************
  Link Pollutant Load Summary
  ***************************
  
  ----------------------------------
                                 COD
  Link                            kg
  ----------------------------------
  Link_01146                  20.899
  Link_01147                  24.978
  Link_01148                  28.972
  Link_01149                  32.649
  Link_01150                  36.357
  Link_01151                  39.535
  Link_01152                  38.916
  Link_01274                   6.186
  Link_01275                  11.606
  Link_01276                  26.274
  Link_01292                   9.745
  Link_01294                  36.500
  Link_01295                  41.125
  Link_01296                  46.149
  Link_01297                  61.234
  Link_01298                   6.284
  Link_01299                  72.671
  Link_01300                  76.935
  Link_01301                  80.697
  Link_01302                   6.177
  Link_01312                   9.852
  Link_01313                 333.216
  Link_01314                 337.796
  Link_01315                 342.286
  Link_01316                 346.800
  Link_01317                 351.405
  Link_01318                 356.214
  Link_01319                 361.170
  Link_01320                 394.700
  Link_01323                 249.794
  Link_01324                   8.194
  Link_01325                 261.417
  Link_01326                 265.414
  Link_01327                 259.256
  Link_01328                   8.471
  Link_01329                 268.901
  Link_01330                 272.527
  Link_01331                 276.344
  Link_01332                 220.352
  Link_01333                   7.980
  Link_01334                 231.330
  Link_01335                  10.030
  Link_01336                 243.638
  Link_01337                 199.518
  Link_01338                   8.093
  Link_01339                 189.014
  Link_01340                   7.741
  Link_01341                 180.886
  Link_01342                   7.818
  Link_01343                 175.864
  Link_01344                  17.553
  Link_01345                 162.765
  Link_01346                 162.068
  Link_01347                   8.919
  Link_01348                 145.138
  Link_01349                  16.916
  Link_01350                 143.896
  Link_01351                   8.593
  Link_01352                 138.041
  Link_01556                  10.629
  Link_01557                  22.513
  Link_01558                1331.090
  Link_01559                  29.802
  Link_01560                1327.758
  Link_01561                1363.078
  Link_01562                1369.254
  Link_01563                1374.058
  Link_01564                   4.950
  Link_01565                 125.566
  Link_01566                   6.890
  Link_01567                   8.437
  Link_01568                 115.175
  Link_01569                   8.589
  Link_01570                 112.005
  Link_01571                 103.019
  Link_01572                  48.630
  Link_01573                  81.443
  Link_01574                  75.494
  Link_01575                   8.260
  Link_01576                  60.911
  Link_01577                  46.010
  Link_01578                  40.393
  Link_01579                   8.869
  Link_01580                   4.886
  Link_01581                   6.260
  Link_01582                   4.883
  Link_01731                  18.269
  Link_01732                  27.213
  Link_01733                  35.573
  Link_01734                   8.461
  Link_01735                  13.902
  Link_01751                  69.850
  Link_01752                  74.610
  Link_01753                  86.449
  Link_01754                  91.682
  Link_01755                  98.212
  Link_01756                   6.222
  Link_01757                 127.517
  Link_01758                   7.674
  Link_01759                   7.752
  Link_01760                 139.069
  Link_01761                 142.475
  Link_01762                 145.847
  Link_01763                   7.961
  Link_01764                 153.098
  Link_01765                 150.620
  Link_01766                 144.277
  Link_01767                 252.963
  Link_01768                 255.450
  Link_01769                 258.844
  Link_01770                 263.777
  Link_01771                 266.876
  Link_01772                  33.611
  Link_01773                 287.630
  Link_01774                  30.870
  Link_01775                 148.654
  Link_01776                 139.443
  Link_01777                 133.922
  Link_01778                 204.675
  Link_01779                 116.873
  Link_01780                 202.945
  Link_01781                  54.634
  Link_01782                 330.651
  Link_01783                   7.898
  Link_01784                 340.034
  Link_01785                 344.204
  Link_01786                  57.141
  Link_01787                  29.306
  Link_01788                 427.037
  Link_01789                 430.509
  Link_01790                  13.931
  Link_01791                  16.746
  Link_01792                  13.469
  Link_01793                 464.567
  Link_01794                 467.666
  Link_01795                 470.968
  Link_01796                 474.515
  Link_01797                 478.745
  Link_01798                 861.702
  Link_01799                 859.344
  Link_01800                 863.476
  Link_01801                 495.573
  Link_01802                 833.234
  Link_01803                 855.904
  Link_01804                 744.027
  Link_01805                 738.722
  Link_01806                 733.905
  Link_01807                 727.974
  Link_01808                  11.584
  Link_01809                 715.674
  Link_01810                 707.790
  Link_01811                   4.496
  Link_01812                  49.029
  Link_01813                  40.241
  Link_01814                 689.509
  Link_01815                 684.330
  Link_01816                 674.098
  Link_01817                   6.358
  Link_01818                 651.847
  Link_01819                 640.316
  Link_01820                   9.346
  Link_01821                  22.251
  Link_01822                   4.867
  Link_01823                 142.022
  Link_01824                 140.304
  Link_01825                  42.194
  Link_01826                  43.672
  Link_01827                   1.335
  Link_01828                  46.527
  Link_01829                   4.850
  Link_01830                  52.968
  Link_01831                   1.335
  Link_01832                  55.845
  Link_01833                  57.335
  Link_01834                  60.326
  Link_01835                   1.335
  Link_01836                  32.224
  Link_01837                  19.205
  Link_01838                  21.925
  Link_01839                  30.656
  Link_01840                  29.265
  Link_01841                  27.891
  Link_01842                  23.401
  Link_01843                  20.577
  Link_01844                  19.196
  Link_02074                   8.065
  Link_02075                 121.242
  Link_02076                 134.748
  Link_02077                  12.670
  Link_02078                 150.230
  Link_02079                   9.960
  Link_02080                 162.268
  Link_02081                 166.302
  Link_02082                 169.936
  Link_02083                   9.994
  Link_02084                   8.125
  Link_02085                 463.153
  Link_02086                 454.022
  Link_02087                 450.589
  Link_02088                 446.118
  Link_02089                 442.071
  Link_02090                 440.433
  Link_02091                 437.035
  Link_02092                 433.837
  Link_02093                   7.645
  Link_02094                 420.282
  Link_02095                 417.264
  Link_02096                 387.771
  Link_02097                  14.939
  Link_02098                  19.283
  Link_02099                 384.283
  Link_02100                 380.998
  Link_02101                  13.151
  Link_02102                 359.283
  Link_02103                 340.891
  Link_02104                  17.161
  Link_02105                 279.899
  Link_02106                  12.728
  Link_02107                   4.736
  Link_02108                 266.307
  Link_02109                 259.980
  Link_02110                 205.755
  Link_02111                 137.177
  Link_02112                  13.249
  Link_02113                 102.191
  Link_02114                  25.491
  Link_02115                  24.014
  Link_02116                  22.610
  Link_02117                  21.253
  Link_02118                  19.870
  Link_02123                   4.880
  Link_02124                   6.246
  Link_02125                   7.617
  Link_02126                   8.941
  Link_02127                  18.481
  Link_02128                  17.098
  Link_02129                  15.745
  Link_02130                  14.392
  Link_02131                  12.999
  Link_02132                  11.602
  Link_02133                  10.209
  Link_02134                 103.702
  Link_02135                 105.178
  Link_02136                 111.562
  Link_02137                   4.881
  Link_02138                 125.382
  Link_02139                 123.880
  Link_02140                 122.315
  Link_02141                 120.878
  Link_02142                 119.317
  Link_02143                 113.019
  Link_02383                   4.768
  Link_02384                   9.385
  Link_02385                  14.312
  Link_02386                  22.328
  Link_02387                  40.220
  Link_02388                  43.599
  Link_02389                  22.411
  Link_02390                  47.472
  Link_02391                  71.207
  Link_02392                  28.334
  Link_02393                  99.475
  Link_05459                  65.102
  Link_05460                 136.147
  Link_05461                 153.030
  Link_05462                 316.296
  Link_05463                 461.945
  Link_05464                  31.251
  Link_05496                1320.472
  Link_05662                  30.956
  Link_05663                   6.419
  Link_05664                  41.304
  Link_05665                 399.455
  Link_05677                 315.245
  Link_05678                  15.118
  Link_05720                 828.680
  Link_05721                 702.570
  Link_05722                  13.073
  Link_05723                  75.173
  Link_05725                  10.341
  Link_05726                 467.244
  Link_05727                   6.298
  Link_05728                 423.533
  Link_05729                 364.269
  Link_05730                 204.183
  Link_05731                 138.586
  Link_05732                 135.748
  Link_05742                  22.579
  Link_05743                 100.406
  Link_05744                 173.271
  Link_05752                  38.068
  Link_05753                   3.113
  Link_05754                  21.978
  Link_05791                   4.869
  Link_05812                 246.871
  Link_05813                 163.265
  Link_05814                 129.174
  Link_05815                 113.692
  Link_05816                  13.896
  Link_05817                  20.242
  Link_05818                  10.227
  Link_05983                  22.260
  Link_05984                  17.292
  Link_06039                   1.332
  Link_07220                  91.558
  Link_07221                  95.854
  Link_07222                 117.185
  Link_07230                 121.871
  Link_07231                 126.291
  Link_07233                 225.539
  Link_07234                 230.365
  Link_07235                  96.583
  Link_07270                  32.860
  Link_07271                  46.806
  Link_07274                  16.325
  Link_07277                  55.279
  Link_07278                  67.464
  Link_07295                  61.838
  Link_07296                  68.981
  Link_07297                  86.887
  Link_07303                   8.651
  Link_07306                   9.610
  Link_07321                  10.212
  Link_07464                  18.807
  Link_07578                  22.095
  Link_07579                 334.019
  Link_07580                 304.519
  Link_07687                  16.553
  Link_07865                  10.194
  Link_08891                   9.906
  Link_08912                  31.087
  Link1_to_ChengXi          1379.801
  Link2_to_ChengXi           405.843
  Link3_to_ChengXi           235.063
  Link_to_LaoDongLu          207.253
  Pump_ChengXi1             1015.836
  Pump_ChengXi2              579.471
  Pump_ChengXi3              288.119
  Pump_ChengXi4              107.127
  Pump_LaoDongLu1            148.947
  Pump_LaoDongLu2             75.813
  Pump_LaoDongLu3             30.211
  outfallpump               1689.507
  

  Analysis begun on:  Sat Sep  4 15:16:41 2021
  Analysis ended on:  Sat Sep  4 15:16:43 2021
  Total elapsed time: 00:00:02