
  EPA STORM WATER MANAGEMENT MODEL - VERSION 5.1 (Build 5.3.0.dev0)
  --------------------------------------------------------------

  WARNING 04: minimum elevation drop used for Conduit Link_01776
  WARNING 04: minimum elevation drop used for Conduit Link_01779
  WARNING 04: minimum elevation drop used for Conduit Link_07234
  WARNING 02: maximum depth increased for Node Node_06087
  
  *********************************************************
  NOTE: The summary statistics displayed in this report are
  based on results found at every computational time step,  
  not just on results from each reporting time step.
  *********************************************************
  
  ****************
  Analysis Options
  ****************
  Flow Units ............... CMS
  Process Models:
    Rainfall/Runoff ........ YES
    RDII ................... NO
    Snowmelt ............... NO
    Groundwater ............ NO
    Flow Routing ........... YES
    Ponding Allowed ........ YES
    Water Quality .......... YES
  Infiltration Method ...... HORTON
  Flow Routing Method ...... DYNWAVE
  Surcharge Method ......... EXTRAN
  Starting Date ............ 01/02/2011 00:00:00
  Ending Date .............. 01/02/2011 06:00:00
  Antecedent Dry Days ...... 0.0
  Report Time Step ......... 00:15:00
  Wet Time Step ............ 00:05:00
  Dry Time Step ............ 01:00:00
  Routing Time Step ........ 60.00 sec
  Variable Time Step ....... YES
  Maximum Trials ........... 8
  Number of Threads ........ 4
  Head Tolerance ........... 0.001500 m
  
  
  **************************        Volume         Depth
  Runoff Quantity Continuity     hectare-m            mm
  **************************     ---------       -------
  Total Precipitation ......         0.858        30.000
  Evaporation Loss .........         0.000         0.000
  Infiltration Loss ........         0.050         1.764
  Surface Runoff ...........         0.810        28.308
  Final Storage ............         0.000         0.009
  Continuity Error (%) .....        -0.272
  
  
  **************************           COD
  Runoff Quality Continuity             kg
  **************************    ----------
  Initial Buildup ..........         0.000
  Surface Buildup ..........         0.000
  Wet Deposition ...........      2256.553
  Sweeping Removal .........         0.000
  Infiltration Loss ........       132.697
  BMP Removal ..............         0.000
  Surface Runoff ...........      2129.283
  Remaining Buildup ........         0.706
  Continuity Error (%) .....        -0.272
  
  
  **************************        Volume        Volume
  Flow Routing Continuity        hectare-m      10^6 ltr
  **************************     ---------     ---------
  Dry Weather Inflow .......         0.153         1.529
  Wet Weather Inflow .......         0.810         8.096
  Groundwater Inflow .......         0.000         0.000
  RDII Inflow ..............         0.000         0.000
  External Inflow ..........         0.000         0.000
  External Outflow .........         0.641         6.408
  Flooding Loss ............         0.301         3.007
  Evaporation Loss .........         0.000         0.000
  Exfiltration Loss ........         0.000         0.000
  Initial Stored Volume ....         0.077         0.773
  Final Stored Volume ......         0.227         2.273
  Continuity Error (%) .....       -12.405
  
  
  **************************           COD
  Quality Routing Continuity            kg
  **************************    ----------
  Dry Weather Inflow .......       845.606
  Wet Weather Inflow .......      2129.176
  Groundwater Inflow .......         0.000
  RDII Inflow ..............         0.000
  External Inflow ..........         0.000
  External Outflow .........      2025.509
  Flooding Loss ............       793.509
  Exfiltration Loss ........         0.000
  Mass Reacted .............         0.000
  Initial Stored Mass ......       427.257
  Final Stored Mass ........       567.309
  Continuity Error (%) .....         0.462
  
  
  *************************
  Highest Continuity Errors
  *************************
  Node Node_04713 (-48.53%)
  Node Node_07272 (-47.87%)
  Node Node_04715 (-46.05%)
  Node Node_02706 (15.28%)
  Node Node_04714 (-15.11%)
  
  
  ***************************
  Time-Step Critical Elements
  ***************************
  Link Link_01778 (48.24%)
  Link Link_02129 (43.91%)
  Link Link_07277 (1.16%)
  Link Link_01780 (1.04%)
  Link Link_02077 (1.02%)
  
  
  ********************************
  Highest Flow Instability Indexes
  ********************************
  Link Link_01558 (78)
  Link Link_01336 (73)
  Link Link_01778 (71)
  Link Link_01335 (70)
  Link Link_01324 (69)
  
  
  *************************
  Routing Time Step Summary
  *************************
  Minimum Time Step           :     5.00 sec
  Average Time Step           :     5.00 sec
  Maximum Time Step           :     5.00 sec
  Percent in Steady State     :     0.00
  Average Iterations per Step :     6.82
  Percent Not Converging      :    62.36
  
  
  ***************************
  Subcatchment Runoff Summary
  ***************************
  
  ------------------------------------------------------------------------------------------------------------------------------
                            Total      Total      Total      Total     Imperv       Perv      Total       Total     Peak  Runoff
                           Precip      Runon       Evap      Infil     Runoff     Runoff     Runoff      Runoff   Runoff   Coeff
  Subcatchment                 mm         mm         mm         mm         mm         mm         mm    10^6 ltr      CMS
  ------------------------------------------------------------------------------------------------------------------------------
  2707                      30.00       0.00       0.00       1.77       7.50      20.80      28.30        0.03     0.00   0.943
  2708                      30.00       0.00       0.00       1.77       7.50      20.80      28.30        0.03     0.00   0.943
  2709                      30.00       0.00       0.00       1.77       7.50      20.80      28.30        0.03     0.00   0.943
  2710                      30.00       0.00       0.00       1.77       7.50      20.80      28.30        0.03     0.00   0.943
  2712                      30.00       0.00       0.00       1.77       7.50      20.80      28.30        0.03     0.00   0.943
  2713                      30.00       0.00       0.00       1.77       7.50      20.80      28.30        0.03     0.00   0.943
  2714                      30.00       0.00       0.00       1.77       7.50      20.80      28.30        0.03     0.00   0.943
  2715                      30.00       0.00       0.00       1.77       7.50      20.80      28.30        0.03     0.00   0.943
  2716                      30.00       0.00       0.00       1.77       7.50      20.80      28.30        0.03     0.00   0.943
  2717                      30.00       0.00       0.00       1.77       7.50      20.80      28.30        0.03     0.00   0.943
  2718                      30.00       0.00       0.00       1.77       7.50      20.80      28.30        0.03     0.00   0.943
  2719                      30.00       0.00       0.00       1.77       7.50      20.80      28.30        0.03     0.00   0.943
  2721                      30.00       0.00       0.00       1.77       7.50      20.80      28.30        0.03     0.00   0.943
  2722                      30.00       0.00       0.00       1.77       7.50      20.80      28.30        0.03     0.00   0.943
  2723                      30.00       0.00       0.00       1.77       7.50      20.80      28.30        0.03     0.00   0.943
  2724                      30.00       0.00       0.00       1.77       7.50      20.80      28.30        0.03     0.00   0.943
  2725                      30.00       0.00       0.00       1.77       7.50      20.80      28.30        0.03     0.00   0.943
  2726                      30.00       0.00       0.00       1.77       7.50      20.80      28.30        0.03     0.00   0.943
  2727                      30.00       0.00       0.00       1.77       7.50      20.80      28.30        0.03     0.00   0.943
  2728                      30.00       0.00       0.00       1.77       7.50      20.80      28.30        0.03     0.00   0.943
  2729                      30.00       0.00       0.00       1.77       7.50      20.80      28.30        0.03     0.00   0.943
  2730                      30.00       0.00       0.00       1.77       7.50      20.80      28.30        0.03     0.00   0.943
  2731                      30.00       0.00       0.00       1.77       7.50      20.80      28.30        0.03     0.00   0.943
  2732                      30.00       0.00       0.00       1.77       7.50      20.80      28.30        0.03     0.00   0.943
  2733                      30.00       0.00       0.00       1.77       7.50      20.80      28.30        0.03     0.00   0.943
  2734                      30.00       0.00       0.00       1.77       7.50      20.80      28.30        0.03     0.00   0.943
  2735                      30.00       0.00       0.00       1.77       7.50      20.80      28.30        0.03     0.00   0.943
  2736                      30.00       0.00       0.00       1.77       7.50      20.80      28.30        0.03     0.00   0.943
  2737                      30.00       0.00       0.00       1.77       7.50      20.80      28.30        0.03     0.00   0.943
  2738                      30.00       0.00       0.00       1.77       7.50      20.80      28.30        0.03     0.00   0.943
  2739                      30.00       0.00       0.00       1.77       7.50      20.80      28.30        0.03     0.00   0.943
  2740                      30.00       0.00       0.00       1.77       7.50      20.80      28.30        0.03     0.00   0.943
  2741                      30.00       0.00       0.00       1.77       7.50      20.80      28.30        0.03     0.00   0.943
  2742                      30.00       0.00       0.00       1.77       7.50      20.80      28.30        0.03     0.00   0.943
  2743                      30.00       0.00       0.00       1.77       7.50      20.80      28.30        0.03     0.00   0.943
  2744                      30.00       0.00       0.00       1.77       7.50      20.80      28.30        0.03     0.00   0.943
  2745                      30.00       0.00       0.00       1.77       7.50      20.80      28.30        0.03     0.00   0.943
  2746                      30.00       0.00       0.00       1.77       7.50      20.80      28.30        0.03     0.00   0.943
  2747                      30.00       0.00       0.00       1.77       7.50      20.80      28.30        0.03     0.00   0.943
  2748                      30.00       0.00       0.00       1.77       7.50      20.80      28.30        0.03     0.00   0.943
  2749                      30.00       0.00       0.00       1.77       7.50      20.80      28.30        0.03     0.00   0.943
  2750                      30.00       0.00       0.00       1.77       7.50      20.80      28.30        0.03     0.00   0.943
  2751                      30.00       0.00       0.00       1.77       7.50      20.80      28.30        0.03     0.00   0.943
  2752                      30.00       0.00       0.00       1.77       7.50      20.80      28.30        0.03     0.00   0.943
  2753                      30.00       0.00       0.00       1.77       7.50      20.80      28.30        0.03     0.00   0.943
  2754                      30.00       0.00       0.00       1.77       7.50      20.80      28.30        0.03     0.00   0.943
  2755                      30.00       0.00       0.00       1.77       7.50      20.80      28.30        0.03     0.00   0.943
  2756                      30.00       0.00       0.00       1.77       7.50      20.80      28.30        0.03     0.00   0.943
  2964                      30.00       0.00       0.00       1.77       7.50      20.80      28.30        0.03     0.00   0.943
  2969                      30.00       0.00       0.00       1.77       7.50      20.80      28.30        0.03     0.00   0.943
  2970                      30.00       0.00       0.00       1.77       7.50      20.80      28.30        0.03     0.00   0.943
  2974                      30.00       0.00       0.00       1.77       7.50      20.80      28.30        0.03     0.00   0.943
  2975                      30.00       0.00       0.00       1.77       7.50      20.80      28.30        0.03     0.00   0.943
  2976                      30.00       0.00       0.00       1.77       7.50      20.80      28.30        0.03     0.00   0.943
  2977                      30.00       0.00       0.00       1.77       7.50      20.80      28.30        0.03     0.00   0.943
  2978                      30.00       0.00       0.00       1.77       7.50      20.80      28.30        0.03     0.00   0.943
  2979                      30.00       0.00       0.00       1.77       7.50      20.80      28.30        0.03     0.00   0.943
  2980                      30.00       0.00       0.00       1.77       7.50      20.80      28.30        0.03     0.00   0.943
  2981                      30.00       0.00       0.00       1.77       7.50      20.80      28.30        0.03     0.00   0.943
  2982                      30.00       0.00       0.00       1.77       7.50      20.80      28.30        0.03     0.00   0.943
  2984                      30.00       0.00       0.00       1.77       7.50      20.80      28.30        0.03     0.00   0.943
  2985                      30.00       0.00       0.00       1.77       7.50      20.80      28.30        0.03     0.00   0.943
  3925                      30.00       0.00       0.00       1.77       7.50      20.80      28.30        0.03     0.00   0.943
  3926                      30.00       0.00       0.00       1.77       7.50      20.80      28.30        0.03     0.00   0.943
  3927                      30.00       0.00       0.00       1.77       7.50      20.80      28.30        0.03     0.00   0.943
  3928                      30.00       0.00       0.00       1.77       7.50      20.80      28.30        0.03     0.00   0.943
  3929                      30.00       0.00       0.00       1.77       7.50      20.80      28.30        0.03     0.00   0.943
  3930                      30.00       0.00       0.00       1.77       7.50      20.80      28.30        0.03     0.00   0.943
  3931                      30.00       0.00       0.00       1.77       7.50      20.80      28.30        0.03     0.00   0.943
  3932                      30.00       0.00       0.00       1.77       7.50      20.80      28.30        0.03     0.00   0.943
  3933                      30.00       0.00       0.00       1.77       7.50      20.80      28.30        0.03     0.00   0.943
  3934                      30.00       0.00       0.00       1.77       7.50      20.80      28.30        0.03     0.00   0.943
  3935                      30.00       0.00       0.00       1.77       7.50      20.80      28.30        0.03     0.00   0.943
  3936                      30.00       0.00       0.00       1.77       7.50      20.80      28.30        0.03     0.00   0.943
  3937                      30.00       0.00       0.00       1.77       7.50      20.80      28.30        0.03     0.00   0.943
  3938                      30.00       0.00       0.00       1.77       7.50      20.80      28.30        0.03     0.00   0.943
  3939                      30.00       0.00       0.00       1.77       7.50      20.80      28.30        0.03     0.00   0.943
  3940                      30.00       0.00       0.00       1.77       7.50      20.80      28.30        0.03     0.00   0.943
  3941                      30.00       0.00       0.00       1.77       7.50      20.80      28.30        0.03     0.00   0.943
  3942                      30.00       0.00       0.00       1.77       7.50      20.80      28.30        0.03     0.00   0.943
  3943                      30.00       0.00       0.00       1.77       7.50      20.80      28.30        0.03     0.00   0.943
  3944                      30.00       0.00       0.00       1.77       7.50      20.80      28.30        0.03     0.00   0.943
  3945                      30.00       0.00       0.00       1.77       7.50      20.80      28.30        0.03     0.00   0.943
  3946                      30.00       0.00       0.00       1.77       7.50      20.80      28.30        0.03     0.00   0.943
  3947                      30.00       0.00       0.00       1.77       7.50      20.80      28.30        0.03     0.00   0.943
  3948                      30.00       0.00       0.00       1.77       7.50      20.80      28.30        0.03     0.00   0.943
  3949                      30.00       0.00       0.00       1.77       7.50      20.80      28.30        0.03     0.00   0.943
  3950                      30.00       0.00       0.00       1.77       7.50      20.80      28.30        0.03     0.00   0.943
  3951                      30.00       0.00       0.00       1.77       7.50      20.80      28.30        0.03     0.00   0.943
  3952                      30.00       0.00       0.00       1.77       7.50      20.80      28.30        0.03     0.00   0.943
  3953                      30.00       0.00       0.00       1.77       7.50      20.80      28.30        0.03     0.00   0.943
  3954                      30.00       0.00       0.00       1.77       7.50      20.80      28.30        0.03     0.00   0.943
  3955                      30.00       0.00       0.00       1.77       7.50      20.80      28.30        0.03     0.00   0.943
  3956                      30.00       0.00       0.00       1.77       7.50      20.80      28.30        0.03     0.00   0.943
  4032                      30.00       0.00       0.00       1.77       7.50      20.80      28.30        0.03     0.00   0.943
  4033                      30.00       0.00       0.00       1.77       7.50      20.80      28.30        0.03     0.00   0.943
  4041                      30.00       0.00       0.00       1.77       7.50      20.80      28.30        0.03     0.00   0.943
  4051                      30.00       0.00       0.00       1.77       7.50      20.80      28.30        0.03     0.00   0.943
  4055                      30.00       0.00       0.00       1.77       7.50      20.80      28.30        0.03     0.00   0.943
  4056                      30.00       0.00       0.00       1.77       7.50      20.80      28.30        0.03     0.00   0.943
  4058                      30.00       0.00       0.00       1.77       7.50      20.80      28.30        0.03     0.00   0.943
  4385                      30.00       0.00       0.00       1.77       7.50      20.80      28.30        0.03     0.00   0.943
  4386                      30.00       0.00       0.00       1.77       7.50      20.80      28.30        0.03     0.00   0.943
  4387                      30.00       0.00       0.00       1.77       7.50      20.80      28.30        0.03     0.00   0.943
  4388                      30.00       0.00       0.00       1.77       7.50      20.80      28.30        0.03     0.00   0.943
  4389                      30.00       0.00       0.00       1.77       7.50      20.80      28.30        0.03     0.00   0.943
  4390                      30.00       0.00       0.00       1.77       7.50      20.80      28.30        0.03     0.00   0.943
  4391                      30.00       0.00       0.00       1.77       7.50      20.80      28.30        0.03     0.00   0.943
  4392                      30.00       0.00       0.00       1.77       7.50      20.80      28.30        0.03     0.00   0.943
  4393                      30.00       0.00       0.00       1.77       7.50      20.80      28.30        0.03     0.00   0.943
  4394                      30.00       0.00       0.00       1.77       7.50      20.80      28.30        0.03     0.00   0.943
  4395                      30.00       0.00       0.00       1.77       7.50      20.80      28.30        0.03     0.00   0.943
  4396                      30.00       0.00       0.00       1.77       7.50      20.80      28.30        0.03     0.00   0.943
  4397                      30.00       0.00       0.00       1.77       7.50      20.80      28.30        0.03     0.00   0.943
  4398                      30.00       0.00       0.00       1.77       7.50      20.80      28.30        0.03     0.00   0.943
  4429                      30.00       0.00       0.00       1.77       7.50      20.80      28.30        0.03     0.00   0.943
  4430                      30.00       0.00       0.00       1.77       7.50      20.80      28.30        0.03     0.00   0.943
  4431                      30.00       0.00       0.00       1.77       7.50      20.80      28.30        0.03     0.00   0.943
  4432                      30.00       0.00       0.00       1.77       7.50      20.80      28.30        0.03     0.00   0.943
  4433                      30.00       0.00       0.00       1.77       7.50      20.80      28.30        0.03     0.00   0.943
  4434                      30.00       0.00       0.00       1.77       7.50      20.80      28.30        0.03     0.00   0.943
  4435                      30.00       0.00       0.00       1.77       7.50      20.80      28.30        0.03     0.00   0.943
  4436                      30.00       0.00       0.00       1.77       7.50      20.80      28.30        0.03     0.00   0.943
  4437                      30.00       0.00       0.00       1.77       7.50      20.80      28.30        0.03     0.00   0.943
  4438                      30.00       0.00       0.00       1.77       7.50      20.80      28.30        0.03     0.00   0.943
  4439                      30.00       0.00       0.00       1.77       7.50      20.80      28.30        0.03     0.00   0.943
  4440                      30.00       0.00       0.00       1.77       7.50      20.80      28.30        0.03     0.00   0.943
  4441                      30.00       0.00       0.00       1.77       7.50      20.80      28.30        0.03     0.00   0.943
  4442                      30.00       0.00       0.00       1.77       7.50      20.80      28.30        0.03     0.00   0.943
  4443                      30.00       0.00       0.00       1.77       7.50      20.80      28.30        0.03     0.00   0.943
  4444                      30.00       0.00       0.00       1.77       7.50      20.80      28.30        0.03     0.00   0.943
  4445                      30.00       0.00       0.00       1.77       7.50      20.80      28.30        0.03     0.00   0.943
  4446                      30.00       0.00       0.00       1.77       7.50      20.80      28.30        0.03     0.00   0.943
  4447                      30.00       0.00       0.00       1.77       7.50      20.80      28.30        0.03     0.00   0.943
  4448                      30.00       0.00       0.00       1.77       7.50      20.80      28.30        0.03     0.00   0.943
  4449                      30.00       0.00       0.00       1.77       7.50      20.80      28.30        0.03     0.00   0.943
  4450                      30.00       0.00       0.00       1.77       7.50      20.80      28.30        0.03     0.00   0.943
  4451                      30.00       0.00       0.00       1.77       7.50      20.80      28.30        0.03     0.00   0.943
  4452                      30.00       0.00       0.00       1.77       7.50      20.80      28.30        0.03     0.00   0.943
  4453                      30.00       0.00       0.00       1.77       7.50      20.80      28.30        0.03     0.00   0.943
  4454                      30.00       0.00       0.00       1.77       7.50      20.80      28.30        0.03     0.00   0.943
  4462                      30.00       0.00       0.00       1.77       7.50      20.80      28.30        0.03     0.00   0.943
  4463                      30.00       0.00       0.00       1.77       7.50      20.80      28.30        0.03     0.00   0.943
  4563                      30.00       0.00       0.00       1.77       7.50      20.80      28.30        0.03     0.00   0.943
  4564                      30.00       0.00       0.00       1.77       7.50      20.80      28.30        0.03     0.00   0.943
  4565                      30.00       0.00       0.00       1.77       7.50      20.80      28.30        0.03     0.00   0.943
  4566                      30.00       0.00       0.00       1.77       7.50      20.80      28.30        0.03     0.00   0.943
  4567                      30.00       0.00       0.00       1.77       7.50      20.80      28.30        0.03     0.00   0.943
  4568                      30.00       0.00       0.00       1.77       7.50      20.80      28.30        0.03     0.00   0.943
  4569                      30.00       0.00       0.00       1.77       7.50      20.80      28.30        0.03     0.00   0.943
  4570                      30.00       0.00       0.00       1.77       7.50      20.80      28.30        0.03     0.00   0.943
  4571                      30.00       0.00       0.00       1.77       7.50      20.80      28.30        0.03     0.00   0.943
  4572                      30.00       0.00       0.00       1.77       7.50      20.80      28.30        0.03     0.00   0.943
  4573                      30.00       0.00       0.00       1.77       7.50      20.80      28.30        0.03     0.00   0.943
  4574                      30.00       0.00       0.00       1.77       7.50      20.80      28.30        0.03     0.00   0.943
  4575                      30.00       0.00       0.00       1.77       7.50      20.80      28.30        0.03     0.00   0.943
  4576                      30.00       0.00       0.00       1.77       7.50      20.80      28.30        0.03     0.00   0.943
  4577                      30.00       0.00       0.00       1.77       7.50      20.80      28.30        0.03     0.00   0.943
  4578                      30.00       0.00       0.00       1.77       7.50      20.80      28.30        0.03     0.00   0.943
  4579                      30.00       0.00       0.00       1.77       7.50      20.80      28.30        0.03     0.00   0.943
  4580                      30.00       0.00       0.00       1.77       7.50      20.80      28.30        0.03     0.00   0.943
  4581                      30.00       0.00       0.00       1.77       7.50      20.80      28.30        0.03     0.00   0.943
  4624                      30.00       0.00       0.00       1.77       7.50      20.80      28.30        0.03     0.00   0.943
  4625                      30.00       0.00       0.00       1.77       7.50      20.80      28.30        0.03     0.00   0.943
  4644                      30.00       0.00       0.00       1.77       7.50      20.80      28.30        0.03     0.00   0.943
  4645                      30.00       0.00       0.00       1.77       7.50      20.80      28.30        0.03     0.00   0.943
  4646                      30.00       0.00       0.00       1.77       7.50      20.80      28.30        0.03     0.00   0.943
  4679                      30.00       0.00       0.00       1.77       7.50      20.80      28.30        0.03     0.00   0.943
  4680                      30.00       0.00       0.00       1.77       7.50      20.80      28.30        0.03     0.00   0.943
  4681                      30.00       0.00       0.00       1.77       7.50      20.80      28.30        0.03     0.00   0.943
  4682                      30.00       0.00       0.00       1.77       7.50      20.80      28.30        0.03     0.00   0.943
  4683                      30.00       0.00       0.00       1.77       7.50      20.80      28.30        0.03     0.00   0.943
  4711                      30.00       0.00       0.00       1.77       7.50      20.80      28.30        0.03     0.00   0.943
  4712                      30.00       0.00       0.00       1.77       7.50      20.80      28.30        0.03     0.00   0.943
  4713                      30.00       0.00       0.00       1.77       7.50      20.80      28.30        0.03     0.00   0.943
  4714                      30.00       0.00       0.00       1.77       7.50      20.80      28.30        0.03     0.00   0.943
  4715                      30.00       0.00       0.00       1.77       7.50      20.80      28.30        0.03     0.00   0.943
  4716                      30.00       0.00       0.00       1.77       7.50      20.80      28.30        0.03     0.00   0.943
  4717                      30.00       0.00       0.00       1.77       7.50      20.80      28.30        0.03     0.00   0.943
  4718                      30.00       0.00       0.00       1.77       7.50      20.80      28.30        0.03     0.00   0.943
  4722                      30.00       0.00       0.00       1.77       7.50      20.80      28.30        0.03     0.00   0.943
  4760                      30.00       0.00       0.00       1.77       7.50      20.80      28.30        0.03     0.00   0.943
  4761                      30.00       0.00       0.00       1.77       7.50      20.80      28.30        0.03     0.00   0.943
  4765                      30.00       0.00       0.00       1.77       7.50      20.80      28.30        0.03     0.00   0.943
  4766                      30.00       0.00       0.00       1.77       7.50      20.80      28.30        0.03     0.00   0.943
  4767                      30.00       0.00       0.00       1.77       7.50      20.80      28.30        0.03     0.00   0.943
  4768                      30.00       0.00       0.00       1.77       7.50      20.80      28.30        0.03     0.00   0.943
  4769                      30.00       0.00       0.00       1.77       7.50      20.80      28.30        0.03     0.00   0.943
  4855                      30.00       0.00       0.00       1.77       7.50      20.80      28.30        0.03     0.00   0.943
  4856                      30.00       0.00       0.00       1.77       7.50      20.80      28.30        0.03     0.00   0.943
  5284                      30.00       0.00       0.00       1.77       7.50      20.80      28.30        0.03     0.00   0.943
  5285                      30.00       0.00       0.00       1.77       7.50      20.80      28.30        0.03     0.00   0.943
  5286                      30.00       0.00       0.00       1.77       7.50      20.80      28.30        0.03     0.00   0.943
  5287                      30.00       0.00       0.00       1.77       7.50      20.80      28.30        0.03     0.00   0.943
  5288                      30.00       0.00       0.00       1.77       7.50      20.80      28.30        0.03     0.00   0.943
  5289                      30.00       0.00       0.00       1.77       7.50      20.80      28.30        0.03     0.00   0.943
  5290                      30.00       0.00       0.00       1.77       7.50      20.80      28.30        0.03     0.00   0.943
  5291                      30.00       0.00       0.00       1.77       7.50      20.80      28.30        0.03     0.00   0.943
  5292                      30.00       0.00       0.00       1.77       7.50      20.80      28.30        0.03     0.00   0.943
  5293                      30.00       0.00       0.00       1.77       7.50      20.80      28.30        0.03     0.00   0.943
  5294                      30.00       0.00       0.00       1.77       7.50      20.80      28.30        0.03     0.00   0.943
  5295                      30.00       0.00       0.00       1.77       7.50      20.80      28.30        0.03     0.00   0.943
  5296                      30.00       0.00       0.00       1.77       7.50      20.80      28.30        0.03     0.00   0.943
  5297                      30.00       0.00       0.00       1.77       7.50      20.80      28.30        0.03     0.00   0.943
  5298                      30.00       0.00       0.00       1.77       7.50      20.80      28.30        0.03     0.00   0.943
  5299                      30.00       0.00       0.00       1.77       7.50      20.80      28.30        0.03     0.00   0.943
  5300                      30.00       0.00       0.00       1.77       7.50      20.80      28.30        0.03     0.00   0.943
  5301                      30.00       0.00       0.00       1.77       7.50      20.80      28.30        0.03     0.00   0.943
  5302                      30.00       0.00       0.00       1.77       7.50      20.80      28.30        0.03     0.00   0.943
  5303                      30.00       0.00       0.00       1.77       7.50      20.80      28.30        0.03     0.00   0.943
  5304                      30.00       0.00       0.00       1.77       7.50      20.80      28.30        0.03     0.00   0.943
  5305                      30.00       0.00       0.00       1.77       7.50      20.80      28.30        0.03     0.00   0.943
  5306                      30.00       0.00       0.00       1.77       7.50      20.80      28.30        0.03     0.00   0.943
  5307                      30.00       0.00       0.00       1.77       7.50      20.80      28.30        0.03     0.00   0.943
  5308                      30.00       0.00       0.00       1.77       7.50      20.80      28.30        0.03     0.00   0.943
  5309                      30.00       0.00       0.00       1.77       7.50      20.80      28.30        0.03     0.00   0.943
  5310                      30.00       0.00       0.00       1.77       7.50      20.80      28.30        0.03     0.00   0.943
  5311                      30.00       0.00       0.00       1.77       7.50      20.80      28.30        0.03     0.00   0.943
  5312                      30.00       0.00       0.00       1.77       7.50      20.80      28.30        0.03     0.00   0.943
  5313                      30.00       0.00       0.00       1.77       7.50      20.80      28.30        0.03     0.00   0.943
  5314                      30.00       0.00       0.00       1.77       7.50      20.80      28.30        0.03     0.00   0.943
  5315                      30.00       0.00       0.00       1.77       7.50      20.80      28.30        0.03     0.00   0.943
  5316                      30.00       0.00       0.00       1.77       7.50      20.80      28.30        0.03     0.00   0.943
  5317                      30.00       0.00       0.00       1.77       7.50      20.80      28.30        0.03     0.00   0.943
  5318                      30.00       0.00       0.00       1.77       7.50      20.80      28.30        0.03     0.00   0.943
  5319                      30.00       0.00       0.00       1.77       7.50      20.80      28.30        0.03     0.00   0.943
  5320                      30.00       0.00       0.00       1.77       7.50      20.80      28.30        0.03     0.00   0.943
  5321                      30.00       0.00       0.00       1.77       7.50      20.80      28.30        0.03     0.00   0.943
  5322                      30.00       0.00       0.00       1.77       7.50      20.80      28.30        0.03     0.00   0.943
  5323                      30.00       0.00       0.00       1.77       7.50      20.80      28.30        0.03     0.00   0.943
  5324                      30.00       0.00       0.00       1.77       7.50      20.80      28.30        0.03     0.00   0.943
  5325                      30.00       0.00       0.00       1.77       7.50      20.80      28.30        0.03     0.00   0.943
  5326                      30.00       0.00       0.00       1.77       7.50      20.80      28.30        0.03     0.00   0.943
  5327                      30.00       0.00       0.00       1.77       7.50      20.80      28.30        0.03     0.00   0.943
  5328                      30.00       0.00       0.00       1.77       7.50      20.80      28.30        0.03     0.00   0.943
  5329                      30.00       0.00       0.00       1.77       7.50      20.80      28.30        0.03     0.00   0.943
  5330                      30.00       0.00       0.00       1.77       7.50      20.80      28.30        0.03     0.00   0.943
  5333                      30.00       0.00       0.00       1.77       7.50      20.80      28.30        0.03     0.00   0.943
  5334                      30.00       0.00       0.00       1.77       7.50      20.80      28.30        0.03     0.00   0.943
  6040                      30.00       0.00       0.00       1.77       7.50      20.80      28.30        0.03     0.00   0.943
  6041                      30.00       0.00       0.00       1.77       7.50      20.80      28.30        0.03     0.00   0.943
  6162                      30.00       0.00       0.00       1.77       7.50      20.80      28.30        0.03     0.00   0.943
  7207                      30.00       0.00       0.00       1.77       7.50      20.80      28.30        0.03     0.00   0.943
  7208                      30.00       0.00       0.00       1.77       7.50      20.80      28.30        0.03     0.00   0.943
  7213                      30.00       0.00       0.00       1.77       7.50      20.80      28.30        0.03     0.00   0.943
  7214                      30.00       0.00       0.00       1.77       7.50      20.80      28.30        0.03     0.00   0.943
  7219                      30.00       0.00       0.00       1.77       7.50      20.80      28.30        0.03     0.00   0.943
  7220                      30.00       0.00       0.00       1.77       7.50      20.80      28.30        0.03     0.00   0.943
  7221                      30.00       0.00       0.00       1.77       7.50      20.80      28.30        0.03     0.00   0.943
  7225                      30.00       0.00       0.00       1.77       7.50      20.80      28.30        0.03     0.00   0.943
  7229                      30.00       0.00       0.00       1.77       7.50      20.80      28.30        0.03     0.00   0.943
  7231                      30.00       0.00       0.00       1.77       7.50      20.80      28.30        0.03     0.00   0.943
  7268                      30.00       0.00       0.00       1.77       7.50      20.80      28.30        0.03     0.00   0.943
  7269                      30.00       0.00       0.00       1.77       7.50      20.80      28.30        0.03     0.00   0.943
  7271                      30.00       0.00       0.00       1.77       7.50      20.80      28.30        0.03     0.00   0.943
  7272                      30.00       0.00       0.00       1.77       7.50      20.80      28.30        0.03     0.00   0.943
  7273                      30.00       0.00       0.00       1.77       7.50      20.80      28.30        0.03     0.00   0.943
  7433                      30.00       0.00       0.00       1.77       7.50      20.80      28.30        0.03     0.00   0.943
  7434                      30.00       0.00       0.00       1.77       7.50      20.80      28.30        0.03     0.00   0.943
  7544                      30.00       0.00       0.00       1.77       7.50      20.80      28.30        0.03     0.00   0.943
  7545                      30.00       0.00       0.00       1.77       7.50      20.80      28.30        0.03     0.00   0.943
  8737                      30.00       0.00       0.00       1.77       7.50      20.80      28.30        0.03     0.00   0.943
  8818                      30.00       0.00       0.00       1.77       7.50      20.80      28.30        0.03     0.00   0.943
  9942                      30.00       0.00       0.00       1.77       7.50      20.80      28.30        0.03     0.00   0.943
  9957                      30.00       0.00       0.00       1.77       7.50      20.80      28.30        0.03     0.00   0.943
  4399                      30.00       0.00       0.00       1.70       7.50      20.89      28.39        0.01     0.00   0.946
  4400                      30.00       0.00       0.00       1.70       7.50      20.89      28.39        0.01     0.00   0.946
  4401                      30.00       0.00       0.00       1.70       7.50      20.89      28.39        0.01     0.00   0.946
  4402                      30.00       0.00       0.00       1.70       7.50      20.89      28.39        0.01     0.00   0.946
  4403                      30.00       0.00       0.00       1.70       7.50      20.89      28.39        0.01     0.00   0.946
  4404                      30.00       0.00       0.00       1.70       7.50      20.89      28.39        0.01     0.00   0.946
  4405                      30.00       0.00       0.00       1.70       7.50      20.89      28.39        0.01     0.00   0.946
  4406                      30.00       0.00       0.00       1.70       7.50      20.89      28.39        0.01     0.00   0.946
  4407                      30.00       0.00       0.00       1.70       7.50      20.89      28.39        0.01     0.00   0.946
  4408                      30.00       0.00       0.00       1.70       7.50      20.89      28.39        0.01     0.00   0.946
  4409                      30.00       0.00       0.00       1.70       7.50      20.89      28.39        0.01     0.00   0.946
  4410                      30.00       0.00       0.00       1.70       7.50      20.89      28.39        0.01     0.00   0.946
  4411                      30.00       0.00       0.00       1.70       7.50      20.89      28.39        0.01     0.00   0.946
  4412                      30.00       0.00       0.00       1.70       7.50      20.89      28.39        0.01     0.00   0.946
  4423                      30.00       0.00       0.00       1.70       7.50      20.89      28.39        0.01     0.00   0.946
  4424                      30.00       0.00       0.00       1.70       7.50      20.89      28.39        0.01     0.00   0.946
  4425                      30.00       0.00       0.00       1.70       7.50      20.89      28.39        0.01     0.00   0.946
  4426                      30.00       0.00       0.00       1.70       7.50      20.89      28.39        0.01     0.00   0.946
  4427                      30.00       0.00       0.00       1.70       7.50      20.89      28.39        0.01     0.00   0.946
  4428                      30.00       0.00       0.00       1.70       7.50      20.89      28.39        0.01     0.00   0.946
  4455                      30.00       0.00       0.00       1.70       7.50      20.89      28.39        0.01     0.00   0.946
  4456                      30.00       0.00       0.00       1.70       7.50      20.89      28.39        0.01     0.00   0.946
  4457                      30.00       0.00       0.00       1.70       7.50      20.89      28.39        0.01     0.00   0.946
  4458                      30.00       0.00       0.00       1.70       7.50      20.89      28.39        0.01     0.00   0.946
  4459                      30.00       0.00       0.00       1.70       7.50      20.89      28.39        0.01     0.00   0.946
  4460                      30.00       0.00       0.00       1.70       7.50      20.89      28.39        0.01     0.00   0.946
  4461                      30.00       0.00       0.00       1.70       7.50      20.89      28.39        0.01     0.00   0.946
  4464                      30.00       0.00       0.00       1.70       7.50      20.89      28.39        0.01     0.00   0.946
  4465                      30.00       0.00       0.00       1.70       7.50      20.89      28.39        0.01     0.00   0.946
  4466                      30.00       0.00       0.00       1.70       7.50      20.89      28.39        0.01     0.00   0.946
  4467                      30.00       0.00       0.00       1.70       7.50      20.89      28.39        0.01     0.00   0.946
  4468                      30.00       0.00       0.00       1.70       7.50      20.89      28.39        0.01     0.00   0.946
  4469                      30.00       0.00       0.00       1.70       7.50      20.89      28.39        0.01     0.00   0.946
  4470                      30.00       0.00       0.00       1.70       7.50      20.89      28.39        0.01     0.00   0.946
  4471                      30.00       0.00       0.00       1.70       7.50      20.89      28.39        0.01     0.00   0.946
  4472                      30.00       0.00       0.00       1.70       7.50      20.89      28.39        0.01     0.00   0.946
  4473                      30.00       0.00       0.00       1.70       7.50      20.89      28.39        0.01     0.00   0.946
  4474                      30.00       0.00       0.00       1.70       7.50      20.89      28.39        0.01     0.00   0.946
  4628                      30.00       0.00       0.00       1.70       7.50      20.89      28.39        0.01     0.00   0.946
  4631                      30.00       0.00       0.00       1.70       7.50      20.89      28.39        0.01     0.00   0.946
  4632                      30.00       0.00       0.00       1.70       7.50      20.89      28.39        0.01     0.00   0.946
  4633                      30.00       0.00       0.00       1.70       7.50      20.89      28.39        0.01     0.00   0.946
  4634                      30.00       0.00       0.00       1.70       7.50      20.89      28.39        0.01     0.00   0.946
  4637                      30.00       0.00       0.00       1.70       7.50      20.89      28.39        0.01     0.00   0.946
  4686                      30.00       0.00       0.00       1.70       7.50      20.89      28.39        0.01     0.00   0.946
  4687                      30.00       0.00       0.00       1.70       7.50      20.89      28.39        0.01     0.00   0.946
  4688                      30.00       0.00       0.00       1.70       7.50      20.89      28.39        0.01     0.00   0.946
  5032                      30.00       0.00       0.00       1.70       7.50      20.89      28.39        0.01     0.00   0.946
  5331                      30.00       0.00       0.00       1.70       7.50      20.89      28.39        0.01     0.00   0.946
  5332                      30.00       0.00       0.00       1.70       7.50      20.89      28.39        0.01     0.00   0.946
  5335                      30.00       0.00       0.00       1.70       7.50      20.89      28.39        0.01     0.00   0.946
  5336                      30.00       0.00       0.00       1.70       7.50      20.89      28.39        0.01     0.00   0.946
  5337                      30.00       0.00       0.00       1.70       7.50      20.89      28.39        0.01     0.00   0.946
  5338                      30.00       0.00       0.00       1.70       7.50      20.89      28.39        0.01     0.00   0.946
  5339                      30.00       0.00       0.00       1.70       7.50      20.89      28.39        0.01     0.00   0.946
  5340                      30.00       0.00       0.00       1.70       7.50      20.89      28.39        0.01     0.00   0.946
  5341                      30.00       0.00       0.00       1.70       7.50      20.89      28.39        0.01     0.00   0.946
  5342                      30.00       0.00       0.00       1.70       7.50      20.89      28.39        0.01     0.00   0.946
  5343                      30.00       0.00       0.00       1.70       7.50      20.89      28.39        0.01     0.00   0.946
  5344                      30.00       0.00       0.00       1.70       7.50      20.89      28.39        0.01     0.00   0.946
  5345                      30.00       0.00       0.00       1.70       7.50      20.89      28.39        0.01     0.00   0.946
  5346                      30.00       0.00       0.00       1.70       7.50      20.89      28.39        0.01     0.00   0.946
  5347                      30.00       0.00       0.00       1.70       7.50      20.89      28.39        0.01     0.00   0.946
  5348                      30.00       0.00       0.00       1.70       7.50      20.89      28.39        0.01     0.00   0.946
  5349                      30.00       0.00       0.00       1.70       7.50      20.89      28.39        0.01     0.00   0.946
  5350                      30.00       0.00       0.00       1.70       7.50      20.89      28.39        0.01     0.00   0.946
  6088                      30.00       0.00       0.00       1.70       7.50      20.89      28.39        0.01     0.00   0.946
  7275                      30.00       0.00       0.00       1.70       7.50      20.89      28.39        0.01     0.00   0.946
  9955                      30.00       0.00       0.00       1.70       7.50      20.89      28.39        0.01     0.00   0.946
  9956                      30.00       0.00       0.00       1.70       7.50      20.89      28.39        0.01     0.00   0.946
  
  
  ****************************
  Subcatchment Washoff Summary
  ****************************
  
  ----------------------------------
                                 COD
  Subcatchment                    kg
  ----------------------------------
  2707                         7.443
  2708                         7.443
  2709                         7.443
  2710                         7.443
  2712                         7.443
  2713                         7.443
  2714                         7.443
  2715                         7.443
  2716                         7.443
  2717                         7.443
  2718                         7.443
  2719                         7.443
  2721                         7.443
  2722                         7.443
  2723                         7.443
  2724                         7.443
  2725                         7.443
  2726                         7.443
  2727                         7.443
  2728                         7.443
  2729                         7.443
  2730                         7.443
  2731                         7.443
  2732                         7.443
  2733                         7.443
  2734                         7.443
  2735                         7.443
  2736                         7.443
  2737                         7.443
  2738                         7.443
  2739                         7.443
  2740                         7.443
  2741                         7.443
  2742                         7.443
  2743                         7.443
  2744                         7.443
  2745                         7.443
  2746                         7.443
  2747                         7.443
  2748                         7.443
  2749                         7.443
  2750                         7.443
  2751                         7.443
  2752                         7.443
  2753                         7.443
  2754                         7.443
  2755                         7.443
  2756                         7.443
  2964                         7.443
  2969                         7.443
  2970                         7.443
  2974                         7.443
  2975                         7.443
  2976                         7.443
  2977                         7.443
  2978                         7.443
  2979                         7.443
  2980                         7.443
  2981                         7.443
  2982                         7.443
  2984                         7.443
  2985                         7.443
  3925                         7.443
  3926                         7.443
  3927                         7.443
  3928                         7.443
  3929                         7.443
  3930                         7.443
  3931                         7.443
  3932                         7.443
  3933                         7.443
  3934                         7.443
  3935                         7.443
  3936                         7.443
  3937                         7.443
  3938                         7.443
  3939                         7.443
  3940                         7.443
  3941                         7.443
  3942                         7.443
  3943                         7.443
  3944                         7.443
  3945                         7.443
  3946                         7.443
  3947                         7.443
  3948                         7.443
  3949                         7.443
  3950                         7.443
  3951                         7.443
  3952                         7.443
  3953                         7.443
  3954                         7.443
  3955                         7.443
  3956                         7.443
  4032                         7.443
  4033                         7.443
  4041                         7.443
  4051                         7.443
  4055                         7.443
  4056                         7.443
  4058                         7.443
  4385                         7.443
  4386                         7.443
  4387                         7.443
  4388                         7.443
  4389                         7.443
  4390                         7.443
  4391                         7.443
  4392                         7.443
  4393                         7.443
  4394                         7.443
  4395                         7.443
  4396                         7.443
  4397                         7.443
  4398                         7.443
  4429                         7.443
  4430                         7.443
  4431                         7.443
  4432                         7.443
  4433                         7.443
  4434                         7.443
  4435                         7.443
  4436                         7.443
  4437                         7.443
  4438                         7.443
  4439                         7.443
  4440                         7.443
  4441                         7.443
  4442                         7.443
  4443                         7.443
  4444                         7.443
  4445                         7.443
  4446                         7.443
  4447                         7.443
  4448                         7.443
  4449                         7.443
  4450                         7.443
  4451                         7.443
  4452                         7.443
  4453                         7.443
  4454                         7.443
  4462                         7.443
  4463                         7.443
  4563                         7.443
  4564                         7.443
  4565                         7.443
  4566                         7.443
  4567                         7.443
  4568                         7.443
  4569                         7.443
  4570                         7.443
  4571                         7.443
  4572                         7.443
  4573                         7.443
  4574                         7.443
  4575                         7.443
  4576                         7.443
  4577                         7.443
  4578                         7.443
  4579                         7.443
  4580                         7.443
  4581                         7.443
  4624                         7.443
  4625                         7.443
  4644                         7.443
  4645                         7.443
  4646                         7.443
  4679                         7.443
  4680                         7.443
  4681                         7.443
  4682                         7.443
  4683                         7.443
  4711                         7.443
  4712                         7.443
  4713                         7.443
  4714                         7.443
  4715                         7.443
  4716                         7.443
  4717                         7.443
  4718                         7.443
  4722                         7.443
  4760                         7.443
  4761                         7.443
  4765                         7.443
  4766                         7.443
  4767                         7.443
  4768                         7.443
  4769                         7.443
  4855                         7.443
  4856                         7.443
  5284                         7.443
  5285                         7.443
  5286                         7.443
  5287                         7.443
  5288                         7.443
  5289                         7.443
  5290                         7.443
  5291                         7.443
  5292                         7.443
  5293                         7.443
  5294                         7.443
  5295                         7.443
  5296                         7.443
  5297                         7.443
  5298                         7.443
  5299                         7.443
  5300                         7.443
  5301                         7.443
  5302                         7.443
  5303                         7.443
  5304                         7.443
  5305                         7.443
  5306                         7.443
  5307                         7.443
  5308                         7.443
  5309                         7.443
  5310                         7.443
  5311                         7.443
  5312                         7.443
  5313                         7.443
  5314                         7.443
  5315                         7.443
  5316                         7.443
  5317                         7.443
  5318                         7.443
  5319                         7.443
  5320                         7.443
  5321                         7.443
  5322                         7.443
  5323                         7.443
  5324                         7.443
  5325                         7.443
  5326                         7.443
  5327                         7.443
  5328                         7.443
  5329                         7.443
  5330                         7.443
  5333                         7.443
  5334                         7.443
  6040                         7.443
  6041                         7.443
  6162                         7.443
  7207                         7.443
  7208                         7.443
  7213                         7.443
  7214                         7.443
  7219                         7.443
  7220                         7.443
  7221                         7.443
  7225                         7.443
  7229                         7.443
  7231                         7.443
  7268                         7.443
  7269                         7.443
  7271                         7.443
  7272                         7.443
  7273                         7.443
  7433                         7.443
  7434                         7.443
  7544                         7.443
  7545                         7.443
  8737                         7.443
  8818                         7.443
  9942                         7.443
  9957                         7.443
  4399                         2.240
  4400                         2.240
  4401                         2.240
  4402                         2.240
  4403                         2.240
  4404                         2.240
  4405                         2.240
  4406                         2.240
  4407                         2.240
  4408                         2.240
  4409                         2.240
  4410                         2.240
  4411                         2.240
  4412                         2.240
  4423                         2.240
  4424                         2.240
  4425                         2.240
  4426                         2.240
  4427                         2.240
  4428                         2.240
  4455                         2.240
  4456                         2.240
  4457                         2.240
  4458                         2.240
  4459                         2.240
  4460                         2.240
  4461                         2.240
  4464                         2.240
  4465                         2.240
  4466                         2.240
  4467                         2.240
  4468                         2.240
  4469                         2.240
  4470                         2.240
  4471                         2.240
  4472                         2.240
  4473                         2.240
  4474                         2.240
  4628                         2.240
  4631                         2.240
  4632                         2.240
  4633                         2.240
  4634                         2.240
  4637                         2.240
  4686                         2.240
  4687                         2.240
  4688                         2.240
  5032                         2.240
  5331                         2.240
  5332                         2.240
  5335                         2.240
  5336                         2.240
  5337                         2.240
  5338                         2.240
  5339                         2.240
  5340                         2.240
  5341                         2.240
  5342                         2.240
  5343                         2.240
  5344                         2.240
  5345                         2.240
  5346                         2.240
  5347                         2.240
  5348                         2.240
  5349                         2.240
  5350                         2.240
  6088                         2.240
  7275                         2.240
  9955                         2.240
  9956                         2.240
  ----------------------------------
  System                    2129.283
  
  
  ******************
  Node Depth Summary
  ******************
  
  ---------------------------------------------------------------------------------
                                 Average  Maximum  Maximum  Time of Max    Reported
                                   Depth    Depth      HGL   Occurrence   Max Depth
  Node                 Type       Meters   Meters   Meters  days hr:min      Meters
  ---------------------------------------------------------------------------------
  Node_02706           JUNCTION     2.80     4.63   101.47     0  04:00        0.00
  Node_02707           JUNCTION     0.88     2.19   101.63     0  03:01        0.00
  Node_02708           JUNCTION     0.77     1.95   101.70     0  03:02        0.00
  Node_02709           JUNCTION     0.86     2.09   101.72     0  03:02        0.00
  Node_02711           JUNCTION     0.55     1.81   101.72     0  03:02        0.00
  Node_02712           JUNCTION     0.55     1.81   101.71     0  03:02        0.00
  Node_02713           JUNCTION     0.60     1.85   101.70     0  03:02        0.00
  Node_02714           JUNCTION     0.27     1.31   101.70     0  03:02        0.00
  Node_02715           JUNCTION     0.60     1.85   101.66     0  03:02        0.00
  Node_02716           JUNCTION     0.65     1.90   101.62     0  03:02        0.00
  Node_02717           JUNCTION     0.71     1.97   101.60     0  03:01        0.00
  Node_02718           JUNCTION     0.72     2.03   101.63     0  03:01        0.00
  Node_02720           JUNCTION     0.75     2.08   101.64     0  03:01        0.00
  Node_02721           JUNCTION     1.04     2.41   101.65     0  03:01        0.00
  Node_02722           JUNCTION     0.13     0.15   101.95     0  03:00        0.00
  Node_02723           JUNCTION     0.98     2.33   101.63     0  03:01        0.00
  Node_02724           JUNCTION     0.84     2.16   101.58     0  03:01        0.00
  Node_02725           JUNCTION     0.86     2.16   101.53     0  03:01        0.00
  Node_02726           JUNCTION     0.94     2.21   101.47     0  03:01        0.00
  Node_02727           JUNCTION     1.04     2.29   101.41     0  03:01        0.00
  Node_02728           JUNCTION     0.45     1.34   101.42     0  03:01        0.00
  Node_02729           JUNCTION     1.09     2.30   101.36     0  03:01        0.00
  Node_02730           JUNCTION     1.11     2.27   101.30     0  03:01        0.00
  Node_02731           JUNCTION     1.53     2.65   101.24     0  03:02        0.00
  Node_02732           JUNCTION     1.10     2.19   101.21     0  03:02        0.00
  Node_02733           JUNCTION     1.09     2.24   101.24     0  04:09        0.00
  Node_02734           JUNCTION     1.38     2.55   101.26     0  04:09        0.00
  Node_02735           JUNCTION     1.28     2.45   101.26     0  03:38        0.00
  Node_02736           JUNCTION     1.46     2.67   101.28     0  03:45        0.00
  Node_02737           JUNCTION     1.45     2.67   101.29     0  03:43        0.00
  Node_02738           JUNCTION     1.28     2.54   101.31     0  03:39        0.00
  Node_02739           JUNCTION     1.15     2.47   101.34     0  04:00        0.00
  Node_02740           JUNCTION     1.16     2.52   101.36     0  03:39        0.00
  Node_02741           JUNCTION     0.83     2.06   101.35     0  03:39        0.00
  Node_02742           JUNCTION     1.18     2.57   101.37     0  03:39        0.00
  Node_02743           JUNCTION     1.60     3.02   101.39     0  04:00        0.00
  Node_02744           JUNCTION     0.79     2.04   101.39     0  03:39        0.00
  Node_02745           JUNCTION     1.33     2.77   101.39     0  03:39        0.00
  Node_02746           JUNCTION     1.23     2.72   101.41     0  03:39        0.00
  Node_02747           JUNCTION     0.26     1.05   101.41     0  04:00        0.00
  Node_02748           JUNCTION     0.22     0.95   101.40     0  04:00        0.00
  Node_02749           JUNCTION     1.25     2.78   101.42     0  03:39        0.00
  Node_02750           JUNCTION     1.25     2.83   101.43     0  03:59        0.00
  Node_02751           JUNCTION     1.24     2.85   101.45     0  03:39        0.00
  Node_02752           JUNCTION     1.25     2.91   101.45     0  03:38        0.00
  Node_02753           JUNCTION     1.28     2.98   101.46     0  03:58        0.00
  Node_02754           JUNCTION     1.32     3.14   101.46     0  04:00        0.00
  Node_02755           JUNCTION     2.25     4.07   101.46     0  03:39        0.00
  Node_02963           JUNCTION     0.54     1.70   101.61     0  03:01        0.00
  Node_02968           JUNCTION     0.39     1.21   101.34     0  03:39        0.00
  Node_02969           JUNCTION     0.50     1.50   101.38     0  03:39        0.00
  Node_02973           JUNCTION     1.77     3.58   101.46     0  03:59        0.00
  Node_02974           JUNCTION     2.08     4.34   101.46     0  03:39        0.00
  Node_02975           JUNCTION     2.08     4.33   101.46     0  03:39        0.00
  Node_02976           JUNCTION     2.10     4.27   101.46     0  03:39        0.00
  Node_02977           JUNCTION     2.06     4.15   101.48     0  04:00        0.00
  Node_02978           JUNCTION     1.94     3.98   101.51     0  03:59        0.00
  Node_02979           JUNCTION     2.04     4.34   101.46     0  03:39        0.00
  Node_02980           JUNCTION     2.00     4.37   101.45     0  03:59        0.00
  Node_02981           JUNCTION     2.03     4.50   101.45     0  03:58        0.00
  Node_02983           JUNCTION     0.39     1.19   101.31     0  03:45        0.00
  Node_02984           JUNCTION     2.40     4.49   101.47     0  03:59        0.00
  Node_03924           JUNCTION     0.17     1.00   101.82     0  03:39        0.00
  Node_03925           JUNCTION     0.45     1.50   101.87     0  03:41        0.00
  Node_03926           JUNCTION     0.05     0.40   101.87     0  03:40        0.00
  Node_03927           JUNCTION     0.43     1.49   101.87     0  03:41        0.00
  Node_03928           JUNCTION     0.45     1.52   101.87     0  03:41        0.00
  Node_03929           JUNCTION     0.46     1.56   101.87     0  04:06        0.00
  Node_03930           JUNCTION     0.48     1.61   101.86     0  03:41        0.00
  Node_03931           JUNCTION     0.48     1.61   101.86     0  03:43        0.00
  Node_03932           JUNCTION     0.52     1.70   101.86     0  03:43        0.00
  Node_03933           JUNCTION     0.52     1.73   101.85     0  03:41        0.00
  Node_03934           JUNCTION     0.18     0.99   101.85     0  04:01        0.00
  Node_03935           JUNCTION     0.60     1.87   101.84     0  04:06        0.00
  Node_03936           JUNCTION     0.62     1.91   101.83     0  03:44        0.00
  Node_03937           JUNCTION     1.25     1.66   101.82     0  04:02        0.00
  Node_03938           JUNCTION     1.62     3.04   102.23     0  01:54        0.00
  Node_03939           JUNCTION     1.74     3.19   102.23     0  01:54        0.00
  Node_03940           JUNCTION     1.82     3.29   102.22     0  01:54        0.00
  Node_03941           JUNCTION     1.91     3.41   102.21     0  01:54        0.00
  Node_03942           JUNCTION     1.95     3.46   102.21     0  02:49        0.00
  Node_03943           JUNCTION     2.05     3.58   102.19     0  01:57        0.00
  Node_03944           JUNCTION     2.15     3.69   102.17     0  01:54        0.00
  Node_03945           JUNCTION     2.21     3.77   102.19     0  03:56        0.00
  Node_03946           JUNCTION     2.27     3.85   102.21     0  03:44        0.00
  Node_03947           JUNCTION     2.57     4.30   102.19     0  04:03        0.00
  Node_03948           JUNCTION     2.53     4.32   102.17     0  03:40        0.00
  Node_03949           JUNCTION     2.63     4.45   102.15     0  04:06        0.00
  Node_03950           JUNCTION     2.50     4.37   102.14     0  04:03        0.00
  Node_03951           JUNCTION     2.49     4.41   102.10     0  04:00        0.00
  Node_03952           JUNCTION     2.49     4.47   102.06     0  03:43        0.00
  Node_03953           JUNCTION     2.39     4.44   102.01     0  03:58        0.00
  Node_03954           JUNCTION     3.26     5.36   101.94     0  03:40        0.00
  Node_03955           JUNCTION     2.21     4.38   101.87     0  04:07        0.00
  Node_04031           JUNCTION     0.40     0.97   102.20     0  03:57        0.00
  Node_04032           JUNCTION     2.21     3.85   102.20     0  03:43        0.00
  Node_04040           JUNCTION     0.75     1.65   102.20     0  01:52        0.00
  Node_04050           JUNCTION     0.33     1.59   102.56     0  04:29        0.00
  Node_04054           JUNCTION     0.11     0.73   101.87     0  03:41        0.00
  Node_04055           JUNCTION     0.26     1.04   101.86     0  04:06        0.00
  Node_04057           JUNCTION     0.31     1.52   101.83     0  03:42        0.00
  Node_04384           JUNCTION     2.07     3.99   101.57     0  03:39        0.00
  Node_04385           JUNCTION     1.77     3.67   101.58     0  03:59        0.00
  Node_04386           JUNCTION     1.77     3.65   101.59     0  03:59        0.00
  Node_04387           JUNCTION     1.76     3.63   101.60     0  03:59        0.00
  Node_04388           JUNCTION     1.75     3.60   101.61     0  03:59        0.00
  Node_04389           JUNCTION     0.37     1.24   101.61     0  03:59        0.00
  Node_04390           JUNCTION     1.74     3.59   101.61     0  03:59        0.00
  Node_04391           JUNCTION     1.73     3.55   101.62     0  03:59        0.00
  Node_04392           JUNCTION     1.84     3.67   101.63     0  03:59        0.00
  Node_04393           JUNCTION     1.71     3.51   101.63     0  03:58        0.00
  Node_04394           JUNCTION     0.65     1.98   101.63     0  03:59        0.00
  Node_04395           JUNCTION     1.69     3.48   101.63     0  03:59        0.00
  Node_04396           JUNCTION     1.67     3.44   101.64     0  04:00        0.00
  Node_04397           JUNCTION     0.51     1.74   101.64     0  03:59        0.00
  Node_04428           JUNCTION     1.67     3.42   101.64     0  04:00        0.00
  Node_04429           JUNCTION     1.66     3.40   101.64     0  04:00        0.00
  Node_04430           JUNCTION     1.64     3.37   101.65     0  04:00        0.00
  Node_04431           JUNCTION     1.42     3.08   101.65     0  04:00        0.00
  Node_04432           JUNCTION     1.33     2.96   101.64     0  03:59        0.00
  Node_04433           JUNCTION     1.15     2.76   101.64     0  04:00        0.00
  Node_04434           JUNCTION     1.44     3.05   101.64     0  04:00        0.00
  Node_04435           JUNCTION     1.28     2.87   101.65     0  04:00        0.00
  Node_04436           JUNCTION     1.67     3.24   101.64     0  04:00        0.00
  Node_04437           JUNCTION     1.80     3.35   101.64     0  03:59        0.00
  Node_04438           JUNCTION     2.10     3.64   101.65     0  04:00        0.00
  Node_04439           JUNCTION     1.15     2.68   101.65     0  03:58        0.00
  Node_04440           JUNCTION     1.13     2.66   101.67     0  03:59        0.00
  Node_04441           JUNCTION     0.87     2.34   101.67     0  03:59        0.00
  Node_04442           JUNCTION     1.20     2.71   101.68     0  04:00        0.00
  Node_04443           JUNCTION     1.05     2.56   101.69     0  03:59        0.00
  Node_04444           JUNCTION     1.04     2.53   101.71     0  03:25        0.00
  Node_04445           JUNCTION     0.97     2.46   101.73     0  03:25        0.00
  Node_04446           JUNCTION     0.93     2.41   101.75     0  03:25        0.00
  Node_04447           JUNCTION     0.87     2.33   101.77     0  03:25        0.00
  Node_04448           JUNCTION     0.88     2.34   101.79     0  03:25        0.00
  Node_04449           JUNCTION     0.89     2.35   101.81     0  03:25        0.00
  Node_04450           JUNCTION     1.04     2.51   101.83     0  03:55        0.00
  Node_04451           JUNCTION     0.85     2.31   101.85     0  03:55        0.00
  Node_04452           JUNCTION     0.61     2.04   101.86     0  03:55        0.00
  Node_04453           JUNCTION     0.42     1.64   101.86     0  03:55        0.00
  Node_04461           JUNCTION     0.81     2.25   101.86     0  03:55        0.00
  Node_04462           JUNCTION     0.80     2.22   101.87     0  03:55        0.00
  Node_04562           JUNCTION     0.76     2.33   101.92     0  04:00        0.00
  Node_04563           JUNCTION     1.11     2.80   101.92     0  04:00        0.00
  Node_04564           JUNCTION     0.90     2.54   101.93     0  03:59        0.00
  Node_04565           JUNCTION     0.92     2.56   101.92     0  04:00        0.00
  Node_04566           JUNCTION     1.06     2.73   101.92     0  04:00        0.00
  Node_04567           JUNCTION     1.02     2.70   101.91     0  04:00        0.00
  Node_04568           JUNCTION     1.03     2.73   101.92     0  04:00        0.00
  Node_04569           JUNCTION     1.20     2.94   101.91     0  03:59        0.00
  Node_04570           JUNCTION     0.69     2.18   101.91     0  04:00        0.00
  Node_04571           JUNCTION     1.22     2.97   101.90     0  04:00        0.00
  Node_04572           JUNCTION     2.60     4.36   101.89     0  03:59        0.00
  Node_04573           JUNCTION     2.28     4.04   101.88     0  04:00        0.00
  Node_04574           JUNCTION     2.48     3.54   101.84     0  04:00        0.00
  Node_04575           JUNCTION     2.77     4.53   101.85     0  03:59        0.00
  Node_04576           JUNCTION     1.39     3.16   101.81     0  04:00        0.00
  Node_04577           JUNCTION     1.43     3.20   101.78     0  04:00        0.00
  Node_04578           JUNCTION     1.47     3.23   101.74     0  03:58        0.00
  Node_04579           JUNCTION     1.54     3.29   101.70     0  04:00        0.00
  Node_04580           JUNCTION     0.62     1.98   101.76     0  03:25        0.00
  Node_04623           JUNCTION     0.59     1.92   101.58     0  03:59        0.00
  Node_04624           JUNCTION     0.77     2.18   101.64     0  03:59        0.00
  Node_04643           JUNCTION     0.57     1.90   101.81     0  03:25        0.00
  Node_04644           JUNCTION     0.58     1.87   101.71     0  03:25        0.00
  Node_04645           JUNCTION     0.79     2.05   101.65     0  03:00        0.00
  Node_04678           JUNCTION     0.61     1.92   101.64     0  04:00        0.00
  Node_04679           JUNCTION     0.35     1.40   101.58     0  03:39        0.00
  Node_04680           JUNCTION     1.85     3.78   101.55     0  03:39        0.00
  Node_04681           JUNCTION     1.85     3.82   101.54     0  03:39        0.00
  Node_04682           JUNCTION     0.22     0.87   101.88     0  04:00        0.00
  Node_04710           JUNCTION     0.59     2.06   102.05     0  05:10        0.00
  Node_04711           JUNCTION     0.64     2.61   102.60     0  04:39        0.00
  Node_04712           JUNCTION     0.64     2.61   102.62     0  02:57        0.00
  Node_04713           JUNCTION     0.59     2.58   102.63     0  04:40        0.00
  Node_04714           JUNCTION     0.63     2.60   102.65     0  03:00        0.00
  Node_04715           JUNCTION     0.60     2.52   102.61     0  02:59        0.00
  Node_04716           JUNCTION     0.60     2.46   102.59     0  02:59        0.00
  Node_04717           JUNCTION     0.35     1.11   101.41     0  02:59        0.00
  Node_04721           JUNCTION     0.46     1.54   101.89     0  03:59        0.00
  Node_04759           JUNCTION     0.49     1.63   101.81     0  03:59        0.00
  Node_04760           JUNCTION     0.61     2.01   101.47     0  03:39        0.00
  Node_04764           JUNCTION     0.57     1.59   101.51     0  02:56        0.00
  Node_04765           JUNCTION     0.39     1.45   101.87     0  03:55        0.00
  Node_04766           JUNCTION     0.72     2.14   101.91     0  04:01        0.00
  Node_04767           JUNCTION     0.69     2.09   101.92     0  04:00        0.00
  Node_04768           JUNCTION     0.76     2.26   101.92     0  04:00        0.00
  Node_04854           JUNCTION     0.29     1.18   101.62     0  03:59        0.00
  Node_04855           JUNCTION     0.87     1.92   101.84     0  04:01        0.00
  Node_05283           JUNCTION     2.08     3.60   102.22     0  03:41        0.00
  Node_05284           JUNCTION     2.05     3.56   102.22     0  03:42        0.00
  Node_05285           JUNCTION     1.99     3.47   102.22     0  02:26        0.00
  Node_05286           JUNCTION     1.96     3.42   102.22     0  01:53        0.00
  Node_05287           JUNCTION     1.93     3.40   102.26     0  01:54        0.00
  Node_05288           JUNCTION     1.92     3.39   102.27     0  01:54        0.00
  Node_05289           JUNCTION     1.39     2.70   102.22     0  02:35        0.00
  Node_05290           JUNCTION     1.91     3.39   102.28     0  01:54        0.00
  Node_05291           JUNCTION     1.68     3.13   102.33     0  01:54        0.00
  Node_05292           JUNCTION     1.65     3.08   102.33     0  01:54        0.00
  Node_05293           JUNCTION     1.64     3.07   102.33     0  01:54        0.00
  Node_05294           JUNCTION     1.60     3.02   102.33     0  01:54        0.00
  Node_05295           JUNCTION     1.64     3.06   102.33     0  01:54        0.00
  Node_05296           JUNCTION     1.61     3.02   102.34     0  01:54        0.00
  Node_05297           JUNCTION     1.42     2.76   102.27     0  01:53        0.00
  Node_05298           JUNCTION     1.55     2.93   102.33     0  01:54        0.00
  Node_05299           JUNCTION     1.54     2.92   102.33     0  01:54        0.00
  Node_05300           JUNCTION     1.51     2.87   102.32     0  01:54        0.00
  Node_05301           JUNCTION     1.47     2.83   102.32     0  01:54        0.00
  Node_05302           JUNCTION     1.47     2.81   102.31     0  01:54        0.00
  Node_05303           JUNCTION     1.44     2.77   102.31     0  01:54        0.00
[...]
  Link_02112                  2.51      2.51      2.52      0.01         0.25
  Link_02383                  2.81      2.81      3.08      0.01         0.01
  Link_02384                  3.08      3.08      3.12      0.01         0.01
  Link_02385                  3.14      3.14      3.15      0.01         0.13
  Link_02386                  2.01      2.01      2.18      0.01         0.01
  Link_02387                  3.17      3.17      3.49      0.01         0.01
  Link_02388                  3.53      3.53      3.60      0.01         0.01
  Link_02389                  2.61      2.61      3.11      0.01         0.01
  Link_02390                  3.62      3.62      3.67      0.01         0.01
  Link_02391                  3.67      3.67      3.96      0.01         0.01
  Link_02392                  2.60      2.60      2.72      0.01         0.01
  Link_02393                  3.96      3.96      3.99      0.01         0.01
  Link_05459                  3.02      3.02      3.03      0.01         0.01
  Link_05460                  3.20      3.20      3.21      0.01         0.01
  Link_05461                  3.29      3.29      3.30      0.01         0.05
  Link_05462                  3.37      3.37      3.38      0.78         0.76
  Link_05463                  3.44      3.44      3.45      0.80         0.83
  Link_05464                  3.50      3.50      3.50      0.01         0.67
  Link_05496                  4.31      4.35      4.31      2.83         2.71
  Link_05662                  1.24      1.24      1.25      0.01         0.01
  Link_05663                  1.74      1.74      3.19      0.01         0.01
  Link_05664                  4.56      4.56      4.57      0.01         0.01
  Link_05665                  4.55      4.63      4.55      4.83         4.31
  Link_05677                  4.57      4.57      4.57      3.10         2.98
  Link_05678                  2.58      2.58      2.59      0.01         0.01
  Link_05720                  4.17      4.19      4.17      1.15         0.94
  Link_05721                  4.21      4.21      4.21      1.09         0.87
  Link_05722                  2.58      2.58      2.62      0.01         0.01
  Link_05726                  4.00      4.00      4.06      0.01         0.01
  Link_05727                  4.00      4.00      4.01      0.01         0.04
  Link_05728                  3.48      3.48      3.51      0.01         0.01
  Link_05729                  2.72      2.72      2.73      0.34         0.71
  Link_05742                  2.22      2.22      2.46      0.01         0.01
  Link_05743                  3.99      3.99      4.04      0.01         0.01
  Link_05744                  4.39      4.39      4.49      0.01         0.01
  Link_05752                  1.89      1.89      1.91      1.23         0.01
  Link_05812                  4.43      4.43      4.46      0.01         0.01
  Link_05813                  3.95      3.95      4.01      0.01         0.01
  Link_05814                  3.47      3.47      3.58      0.01         0.01
  Link_05815                  3.25      3.25      3.33      0.01         0.01
  Link_05983                  1.65      1.65      1.80      0.01         0.01
  Link_05984                  1.36      1.36      1.39      0.01         0.01
  Link_07220                  1.66      1.66      1.68      0.06         0.09
  Link_07221                  1.68      1.68      1.68      0.33         0.53
  Link_07222                  1.68      1.68      1.69      0.41         0.39
  Link_07230                  1.69      1.69      1.72      0.32         0.31
  Link_07231                  1.71      1.72      1.72      0.55         0.58
  Link_07233                  1.80      1.84      1.81      3.19         1.59
  Link_07234                  1.83      1.85      1.83      3.59         1.75
  Link_07235                  1.87      1.87      1.98      0.01         0.02
  Link_07270                  0.75      0.75      1.07      0.01         0.01
  Link_07271                  1.06      1.07      1.33      0.01         0.03
  Link_07274                  0.78      0.78      0.80      0.01         0.01
  Link_07277                  1.46      1.47      1.56      0.03         0.04
  Link_07278                  1.57      1.59      1.60      0.04         0.07
  Link_07295                  1.59      1.60      1.64      0.06         0.05
  Link_07296                  1.64      1.64      1.65      0.22         0.14
  Link_07297                  1.65      1.65      1.66      0.35         0.31
  Link_07303                  1.58      1.58      1.60      0.01         0.03
  Link_07306                  1.17      1.17      1.48      0.01         0.01
  Link_07464                  3.76      3.76      3.79      0.01         0.01
  Link_07578                  1.94      1.94      2.00      0.01         0.01
  Link_07579                  2.56      2.56      2.65      0.01         0.01
  Link_07580                  2.49      2.49      2.56      0.01         0.01
  Link_07687                  4.28      4.28      4.31      0.01         0.01
  Link_08891                  1.55      1.55      2.07      0.01         0.01
  Link_08912                  1.84      1.84      2.80      0.01         0.01
  Link1_to_ChengXi            3.66      3.66      3.70      0.01         0.01
  Link2_to_ChengXi            3.59      4.83      3.59      4.62         3.26
  Link3_to_ChengXi            1.84      1.88      2.00      0.82         0.64
  
  
  ***************
  Pumping Summary
  ***************
  
  ---------------------------------------------------------------------------------------------------------
                                                  Min       Avg       Max     Total     Power    % Time Off
                        Percent   Number of      Flow      Flow      Flow    Volume     Usage    Pump Curve
  Pump                 Utilized   Start-Ups       CMS       CMS       CMS  10^6 ltr     Kw-hr    Low   High
  ---------------------------------------------------------------------------------------------------------
  Pump_ChengXi1           84.65         160      0.00      0.17      0.17     3.053     23.02    0.0    0.0
  Pump_ChengXi2           52.96         160      0.00      0.17      0.17     1.910     16.30    0.0    0.0
  Pump_ChengXi3           40.76         110      0.00      0.17      0.17     1.470     13.07    0.0    0.0
  Pump_ChengXi4            6.25          48      0.00      0.17      0.17     0.225      1.90    0.0    0.0
  Pump_LaoDongLu1         79.17          12      0.00      0.03      0.03     0.475      7.42    0.0    0.0
  Pump_LaoDongLu2         40.28          14      0.00      0.03      0.03     0.242      3.92    0.0    0.0
  Pump_LaoDongLu3         12.50           9      0.00      0.03      0.03     0.075      1.19    0.0    0.0
  outfallpump             94.61          34      0.00      0.31      0.45     6.408    115.27    0.0    0.0
  
  
  ***************************
  Link Pollutant Load Summary
  ***************************
  
  ----------------------------------
                                 COD
  Link                            kg
  ----------------------------------
  Link_01146                  27.062
  Link_01147                  34.113
  Link_01148                  41.118
  Link_01149                  47.822
  Link_01150                  54.626
  Link_01151                  61.265
  Link_01152                  49.796
  Link_01274                   9.213
  Link_01275                  18.432
  Link_01276                  40.074
  Link_01292                  12.946
  Link_01294                  56.644
  Link_01295                  64.340
  Link_01296                  72.489
  Link_01297                  93.587
  Link_01298                   9.306
  Link_01299                 111.078
  Link_01300                 118.222
  Link_01301                 125.389
  Link_01302                   9.325
  Link_01312                  12.926
  Link_01313                 283.286
  Link_01314                 290.790
  Link_01315                 298.253
  Link_01316                 305.758
  Link_01317                 313.335
  Link_01318                 321.095
  Link_01319                 328.982
  Link_01320                 368.915
  Link_01323                 216.648
  Link_01324                  11.380
  Link_01325                 234.825
  Link_01326                 241.673
  Link_01327                 209.325
  Link_01328                  10.815
  Link_01329                 225.786
  Link_01330                 232.140
  Link_01331                 238.822
  Link_01332                 169.340
  Link_01333                  10.956
  Link_01334                 186.546
  Link_01335                  14.149
  Link_01336                 204.938
  Link_01337                 141.366
  Link_01338                  11.611
  Link_01339                 123.976
  Link_01340                  11.061
  Link_01341                 109.455
  Link_01342                  11.148
  Link_01343                 118.429
  Link_01344                  19.814
  Link_01345                 130.470
  Link_01346                 135.577
  Link_01347                  13.909
  Link_01348                 146.357
  Link_01349                  20.285
  Link_01350                 150.380
  Link_01351                  13.957
  Link_01352                 159.177
  Link_01556                  11.659
  Link_01557                  21.094
  Link_01558                1423.466
  Link_01559                  32.678
  Link_01560                1416.554
  Link_01561                1462.739
  Link_01562                1471.983
  Link_01563                1479.625
  Link_01564                   8.075
  Link_01565                 159.193
  Link_01566                  11.725
  Link_01567                  11.756
  Link_01568                 170.960
  Link_01569                  11.186
  Link_01570                 180.115
  Link_01571                 186.455
  Link_01572                 204.632
  Link_01573                 101.312
  Link_01574                  92.038
  Link_01575                  13.629
  Link_01576                  72.529
  Link_01577                  51.869
  Link_01578                  42.146
  Link_01579                  11.547
  Link_01580                   5.794
  Link_01581                   8.075
  Link_01582                   5.789
  Link_01731                  22.463
  Link_01732                  34.252
  Link_01733                  45.425
  Link_01734                  11.608
  Link_01735                  16.816
  Link_01751                  89.714
  Link_01752                  97.511
  Link_01753                 114.884
  Link_01754                 123.062
  Link_01755                 132.528
  Link_01756                   9.230
  Link_01757                 165.155
  Link_01758                  10.823
  Link_01759                  10.927
  Link_01760                 184.750
  Link_01761                 190.740
  Link_01762                 196.977
  Link_01763                  10.905
  Link_01764                 210.221
  Link_01765                 214.288
  Link_01766                 211.203
  Link_01767                 352.564
  Link_01768                 354.446
  Link_01769                 356.379
  Link_01770                 358.594
  Link_01771                 360.837
  Link_01772                  31.992
  Link_01773                 375.618
  Link_01774                  32.687
  Link_01775                 155.650
  Link_01776                 146.021
  Link_01777                 137.055
  Link_01778                 177.245
  Link_01779                 112.847
  Link_01780                 194.735
  Link_01781                  57.032
  Link_01782                 402.607
  Link_01783                  11.106
  Link_01784                 408.802
  Link_01785                 412.066
  Link_01786                  60.875
  Link_01787                  32.265
  Link_01788                 474.386
  Link_01789                 476.497
  Link_01790                  17.285
  Link_01791                  19.011
  Link_01792                  15.699
  Link_01793                 497.351
  Link_01794                 499.834
  Link_01795                 502.625
  Link_01796                 505.632
  Link_01797                 507.950
  Link_01798                 969.976
  Link_01799                 964.825
  Link_01800                 975.491
  Link_01801                 514.470
  Link_01802                 927.529
  Link_01803                 958.784
  Link_01804                 822.106
  Link_01805                 815.304
  Link_01806                 808.676
  Link_01807                 801.330
  Link_01808                  14.677
  Link_01809                 783.289
  Link_01810                 770.448
  Link_01811                   7.472
  Link_01812                  52.068
  Link_01813                  43.055
  Link_01814                 742.924
  Link_01815                 736.708
  Link_01816                 722.254
  Link_01817                   9.329
  Link_01818                 693.161
  Link_01819                 676.345
  Link_01820                  12.465
  Link_01821                  25.241
  Link_01822                   5.783
  Link_01823                 184.421
  Link_01824                 181.793
  Link_01825                  51.258
  Link_01826                  53.639
  Link_01827                   2.238
  Link_01828                  58.304
  Link_01829                   5.772
  Link_01830                  66.570
  Link_01831                   2.238
  Link_01832                  71.253
  Link_01833                  73.648
  Link_01834                  78.442
  Link_01835                   2.237
  Link_01836                  40.363
  Link_01837                  20.107
  Link_01838                  28.259
  Link_01839                  37.884
  Link_01840                  35.584
  Link_01841                  33.307
  Link_01842                  27.016
  Link_01843                  22.386
  Link_01844                  20.099
  Link_02074                  11.186
  Link_02075                 174.889
  Link_02076                 194.394
  Link_02077                  19.324
  Link_02078                 218.599
  Link_02079                  12.928
  Link_02080                 236.545
  Link_02081                 242.848
  Link_02082                 249.118
  Link_02083                  12.872
  Link_02084                  11.542
  Link_02085                 449.516
  Link_02086                 444.028
  Link_02087                 443.403
  Link_02088                 442.419
  Link_02089                 441.175
  Link_02090                 530.600
  Link_02091                 524.822
  Link_02092                 519.366
  Link_02093                  10.629
  Link_02094                 498.409
  Link_02095                 492.972
  Link_02096                 471.624
  Link_02097                  17.939
  Link_02098                  34.358
  Link_02099                 465.570
  Link_02100                 459.346
  Link_02101                  16.214
  Link_02102                 429.461
  Link_02103                 405.874
  Link_02104                  24.839
  Link_02105                 330.165
  Link_02106                  16.264
  Link_02107                   8.015
  Link_02108                 313.181
  Link_02109                 306.036
  Link_02110                 268.070
  Link_02111                 176.874
  Link_02112                  16.260
  Link_02113                 130.178
  Link_02114                  36.304
  Link_02115                  33.922
  Link_02116                  31.616
  Link_02117                  29.356
  Link_02118                  27.071
  Link_02123                   5.783
  Link_02124                   8.051
  Link_02125                  10.325
  Link_02126                  12.571
  Link_02127                  24.806
  Link_02128                  22.521
  Link_02129                  20.266
  Link_02130                  18.009
  Link_02131                  15.715
  Link_02132                  13.415
  Link_02133                  11.116
  Link_02134                 132.591
  Link_02135                 134.970
  Link_02136                 143.158
  Link_02137                   5.784
  Link_02138                 163.280
  Link_02139                 160.880
  Link_02140                 158.414
  Link_02141                 156.062
  Link_02142                 153.621
  Link_02143                 145.509
  Link_02383                   7.587
  Link_02384                  14.817
  Link_02385                  21.923
  Link_02386                  25.283
  Link_02387                  55.105
  Link_02388                  61.312
  Link_02389                  25.289
  Link_02390                  67.755
  Link_02391                  99.024
  Link_02392                  34.025
  Link_02393                 138.102
  Link_05459                  82.056
  Link_05460                 179.369
  Link_05461                 213.141
  Link_05462                 395.734
  Link_05463                 495.515
  Link_05464                  31.450
  Link_05496                1405.959
  Link_05662                  48.388
  Link_05663                   9.346
  Link_05664                  49.851
  Link_05665                 376.680
  Link_05677                 259.057
  Link_05678                  18.203
  Link_05720                 920.408
  Link_05721                 762.543
  Link_05722                  16.180
  Link_05723                  91.444
  Link_05725                  14.870
  Link_05726                 451.088
  Link_05727                   9.133
  Link_05728                 503.866
  Link_05729                 436.708
  Link_05730                 265.589
  Link_05731                 179.183
  Link_05732                 174.545
  Link_05742                  25.254
  Link_05743                 144.049
  Link_05744                 255.772
  Link_05752                 187.549
  Link_05753                   4.018
  Link_05754                  24.692
  Link_05791                   5.780
  Link_05812                 210.716
  Link_05813                 125.558
  Link_05814                 149.897
  Link_05815                 175.120
  Link_05816                  18.425
  Link_05817                  26.592
  Link_05818                  11.129
  Link_05983                  27.942
  Link_05984                  20.217
  Link_06039                   2.234
  Link_07220                 120.107
  Link_07221                 128.228
  Link_07222                 155.742
  Link_07230                 163.294
  Link_07231                 170.297
  Link_07233                 326.069
  Link_07234                 333.398
  Link_07235                 149.862
  Link_07270                  33.729
  Link_07271                  49.229
  Link_07274                  18.596
  Link_07277                  63.409
  Link_07278                  74.424
  Link_07295                  77.079
  Link_07296                  87.168
  Link_07297                 111.993
  Link_07303                  11.782
  Link_07306                  12.632
  Link_07321                  11.115
  Link_07464                  22.043
  Link_07578                  26.164
  Link_07579                 397.391
  Link_07580                 362.628
  Link_07687                  19.701
  Link_07865                  11.104
  Link_08891                  13.102
  Link_08912                  33.920
  Link1_to_ChengXi          1488.580
  Link2_to_ChengXi           385.958
  Link3_to_ChengXi           341.068
  Link_to_LaoDongLu          270.470
  Pump_ChengXi1              988.896
  Pump_ChengXi2              637.152
  Pump_ChengXi3              475.651
  Pump_ChengXi4               83.781
  Pump_LaoDongLu1            182.536
  Pump_LaoDongLu2             88.750
  Pump_LaoDongLu3             27.570
  outfallpump               2025.683
  

  Analysis begun on:  Sat Sep  4 15:16:38 2021
  Analysis ended on:  Sat Sep  4 15:16:41 2021
  Total elapsed time: 00:00:03