
  EPA STORM WATER MANAGEMENT MODEL - VERSION 5.1 (Build 5.3.0.dev0)
  --------------------------------------------------------------

  WARNING 04: minimum elevation drop used for Conduit Link_01776
  WARNING 04: minimum elevation drop used for Conduit Link_01779
  WARNING 04: minimum elevation drop used for Conduit Link_07234
  WARNING 02: maximum depth increased for Node Node_06087
  
  *********************************************************
  NOTE: The summary statistics displayed in this report are
  based on results found at every computational time step,  
  not just on results from each reporting time step.
  *********************************************************
  
  ****************
  Analysis Options
  ****************
  Flow Units ............... CMS
  Process Models:
    Rainfall/Runoff ........ YES
    RDII ................... NO
    Snowmelt ............... NO
    Groundwater ............ NO
    Flow Routing ........... YES
    Ponding Allowed ........ YES
    Water Quality .......... YES
  Infiltration Method ...... HORTON
  Flow Routing Method ...... DYNWAVE
  Surcharge Method ......... EXTRAN
  Starting Date ............ 01/02/2011 00:00:00
  Ending Date .............. 01/02/2011 06:00:00
  Antecedent Dry Days ...... 0.0
  Report Time Step ......... 00:15:00
  Wet Time Step ............ 00:05:00
  Dry Time Step ............ 01:00:00
  Routing Time Step ........ 60.00 sec
  Variable Time Step ....... YES
  Maximum Trials ........... 8
  Number of Threads ........ 1
  Head Tolerance ........... 0.001500 m
  
  
  **************************        Volume         Depth
  Runoff Quantity Continuity     hectare-m            mm
  **************************     ---------       -------
  Total Precipitation ......         0.736        25.750
  Evaporation Loss .........         0.000         0.000
  Infiltration Loss ........         0.050         1.733
  Surface Runoff ...........         0.688        24.053
  Final Storage ............         0.000         0.009
  Continuity Error (%) .....        -0.177
  
  
  **************************           COD
  Runoff Quality Continuity             kg
  **************************    ----------
  Initial Buildup ..........         0.000
  Surface Buildup ..........         0.000
  Wet Deposition ...........      1936.875
  Sweeping Removal .........         0.000
  Infiltration Loss ........       130.353
  BMP Removal ..............         0.000
  Surface Runoff ...........      1809.249
  Remaining Buildup ........         0.706
  Continuity Error (%) .....        -0.177
  
  
  **************************        Volume        Volume
  Flow Routing Continuity        hectare-m      10^6 ltr
  **************************     ---------     ---------
  Dry Weather Inflow .......         0.153         1.529
  Wet Weather Inflow .......         0.688         6.879
  Groundwater Inflow .......         0.000         0.000
  RDII Inflow ..............         0.000         0.000
  External Inflow ..........         0.000         0.000
  External Outflow .........         0.548         5.480
  Flooding Loss ............         0.254         2.542
  Evaporation Loss .........         0.000         0.000
  Exfiltration Loss ........         0.000         0.000
  Initial Stored Volume ....         0.077         0.773
  Final Stored Volume ......         0.216         2.158
  Continuity Error (%) .....       -10.880
  
  
  **************************           COD
  Quality Routing Continuity            kg
  **************************    ----------
  Dry Weather Inflow .......       845.606
  Wet Weather Inflow .......      1809.132
  Groundwater Inflow .......         0.000
  RDII Inflow ..............         0.000
  External Inflow ..........         0.000
  External Outflow .........      1592.144
  Flooding Loss ............       642.116
  Exfiltration Loss ........         0.000
  Mass Reacted .............         0.000
  Initial Stored Mass ......       427.257
  Final Stored Mass ........       544.167
  Continuity Error (%) .....         9.850
  
  
  *************************
  Highest Continuity Errors
  *************************
  Node Node_04713 (-61.78%)
  Node Node_07272 (-50.82%)
  Node Node_04715 (-41.39%)
  Node Node_02706 (18.41%)
  Node Node_04711 (-11.92%)
  
  
  ***************************
  Time-Step Critical Elements
  ***************************
  Link Link_01778 (46.37%)
  Link Link_02129 (42.94%)
  Link Link_01558 (2.15%)
  Link Link_07221 (1.81%)
  Link Link_07277 (1.67%)
  
  
  ********************************
  Highest Flow Instability Indexes
  ********************************
  Link Link_01336 (67)
  Link Link_01335 (65)
  Link Link_01778 (64)
  Link Link_01324 (63)
  Link Link_01558 (63)
  
  
  *************************
  Routing Time Step Summary
  *************************
  Minimum Time Step           :     5.00 sec
  Average Time Step           :     5.00 sec
  Maximum Time Step           :     5.00 sec
  Percent in Steady State     :     0.00
  Average Iterations per Step :     6.38
  Percent Not Converging      :    61.83
  
  
  ***************************
  Subcatchment Runoff Summary
  ***************************
  
  ------------------------------------------------------------------------------------------------------------------------------
                            Total      Total      Total      Total     Imperv       Perv      Total       Total     Peak  Runoff
                           Precip      Runon       Evap      Infil     Runoff     Runoff     Runoff      Runoff   Runoff   Coeff
  Subcatchment                 mm         mm         mm         mm         mm         mm         mm    10^6 ltr      CMS
  ------------------------------------------------------------------------------------------------------------------------------
  2707                      25.75       0.00       0.00       1.74       6.44      17.61      24.05        0.02     0.00   0.934
  2708                      25.75       0.00       0.00       1.74       6.44      17.61      24.05        0.02     0.00   0.934
  2709                      25.75       0.00       0.00       1.74       6.44      17.61      24.05        0.02     0.00   0.934
  2710                      25.75       0.00       0.00       1.74       6.44      17.61      24.05        0.02     0.00   0.934
  2712                      25.75       0.00       0.00       1.74       6.44      17.61      24.05        0.02     0.00   0.934
  2713                      25.75       0.00       0.00       1.74       6.44      17.61      24.05        0.02     0.00   0.934
  2714                      25.75       0.00       0.00       1.74       6.44      17.61      24.05        0.02     0.00   0.934
  2715                      25.75       0.00       0.00       1.74       6.44      17.61      24.05        0.02     0.00   0.934
  2716                      25.75       0.00       0.00       1.74       6.44      17.61      24.05        0.02     0.00   0.934
  2717                      25.75       0.00       0.00       1.74       6.44      17.61      24.05        0.02     0.00   0.934
  2718                      25.75       0.00       0.00       1.74       6.44      17.61      24.05        0.02     0.00   0.934
  2719                      25.75       0.00       0.00       1.74       6.44      17.61      24.05        0.02     0.00   0.934
  2721                      25.75       0.00       0.00       1.74       6.44      17.61      24.05        0.02     0.00   0.934
  2722                      25.75       0.00       0.00       1.74       6.44      17.61      24.05        0.02     0.00   0.934
  2723                      25.75       0.00       0.00       1.74       6.44      17.61      24.05        0.02     0.00   0.934
  2724                      25.75       0.00       0.00       1.74       6.44      17.61      24.05        0.02     0.00   0.934
  2725                      25.75       0.00       0.00       1.74       6.44      17.61      24.05        0.02     0.00   0.934
  2726                      25.75       0.00       0.00       1.74       6.44      17.61      24.05        0.02     0.00   0.934
  2727                      25.75       0.00       0.00       1.74       6.44      17.61      24.05        0.02     0.00   0.934
  2728                      25.75       0.00       0.00       1.74       6.44      17.61      24.05        0.02     0.00   0.934
  2729                      25.75       0.00       0.00       1.74       6.44      17.61      24.05        0.02     0.00   0.934
  2730                      25.75       0.00       0.00       1.74       6.44      17.61      24.05        0.02     0.00   0.934
  2731                      25.75       0.00       0.00       1.74       6.44      17.61      24.05        0.02     0.00   0.934
  2732                      25.75       0.00       0.00       1.74       6.44      17.61      24.05        0.02     0.00   0.934
  2733                      25.75       0.00       0.00       1.74       6.44      17.61      24.05        0.02     0.00   0.934
  2734                      25.75       0.00       0.00       1.74       6.44      17.61      24.05        0.02     0.00   0.934
  2735                      25.75       0.00       0.00       1.74       6.44      17.61      24.05        0.02     0.00   0.934
  2736                      25.75       0.00       0.00       1.74       6.44      17.61      24.05        0.02     0.00   0.934
  2737                      25.75       0.00       0.00       1.74       6.44      17.61      24.05        0.02     0.00   0.934
  2738                      25.75       0.00       0.00       1.74       6.44      17.61      24.05        0.02     0.00   0.934
  2739                      25.75       0.00       0.00       1.74       6.44      17.61      24.05        0.02     0.00   0.934
  2740                      25.75       0.00       0.00       1.74       6.44      17.61      24.05        0.02     0.00   0.934
  2741                      25.75       0.00       0.00       1.74       6.44      17.61      24.05        0.02     0.00   0.934
  2742                      25.75       0.00       0.00       1.74       6.44      17.61      24.05        0.02     0.00   0.934
  2743                      25.75       0.00       0.00       1.74       6.44      17.61      24.05        0.02     0.00   0.934
  2744                      25.75       0.00       0.00       1.74       6.44      17.61      24.05        0.02     0.00   0.934
  2745                      25.75       0.00       0.00       1.74       6.44      17.61      24.05        0.02     0.00   0.934
  2746                      25.75       0.00       0.00       1.74       6.44      17.61      24.05        0.02     0.00   0.934
  2747                      25.75       0.00       0.00       1.74       6.44      17.61      24.05        0.02     0.00   0.934
  2748                      25.75       0.00       0.00       1.74       6.44      17.61      24.05        0.02     0.00   0.934
  2749                      25.75       0.00       0.00       1.74       6.44      17.61      24.05        0.02     0.00   0.934
  2750                      25.75       0.00       0.00       1.74       6.44      17.61      24.05        0.02     0.00   0.934
  2751                      25.75       0.00       0.00       1.74       6.44      17.61      24.05        0.02     0.00   0.934
  2752                      25.75       0.00       0.00       1.74       6.44      17.61      24.05        0.02     0.00   0.934
  2753                      25.75       0.00       0.00       1.74       6.44      17.61      24.05        0.02     0.00   0.934
  2754                      25.75       0.00       0.00       1.74       6.44      17.61      24.05        0.02     0.00   0.934
  2755                      25.75       0.00       0.00       1.74       6.44      17.61      24.05        0.02     0.00   0.934
  2756                      25.75       0.00       0.00       1.74       6.44      17.61      24.05        0.02     0.00   0.934
  2964                      25.75       0.00       0.00       1.74       6.44      17.61      24.05        0.02     0.00   0.934
  2969                      25.75       0.00       0.00       1.74       6.44      17.61      24.05        0.02     0.00   0.934
  2970                      25.75       0.00       0.00       1.74       6.44      17.61      24.05        0.02     0.00   0.934
  2974                      25.75       0.00       0.00       1.74       6.44      17.61      24.05        0.02     0.00   0.934
  2975                      25.75       0.00       0.00       1.74       6.44      17.61      24.05        0.02     0.00   0.934
  2976                      25.75       0.00       0.00       1.74       6.44      17.61      24.05        0.02     0.00   0.934
  2977                      25.75       0.00       0.00       1.74       6.44      17.61      24.05        0.02     0.00   0.934
  2978                      25.75       0.00       0.00       1.74       6.44      17.61      24.05        0.02     0.00   0.934
  2979                      25.75       0.00       0.00       1.74       6.44      17.61      24.05        0.02     0.00   0.934
  2980                      25.75       0.00       0.00       1.74       6.44      17.61      24.05        0.02     0.00   0.934
  2981                      25.75       0.00       0.00       1.74       6.44      17.61      24.05        0.02     0.00   0.934
  2982                      25.75       0.00       0.00       1.74       6.44      17.61      24.05        0.02     0.00   0.934
  2984                      25.75       0.00       0.00       1.74       6.44      17.61      24.05        0.02     0.00   0.934
  2985                      25.75       0.00       0.00       1.74       6.44      17.61      24.05        0.02     0.00   0.934
  3925                      25.75       0.00       0.00       1.74       6.44      17.61      24.05        0.02     0.00   0.934
  3926                      25.75       0.00       0.00       1.74       6.44      17.61      24.05        0.02     0.00   0.934
  3927                      25.75       0.00       0.00       1.74       6.44      17.61      24.05        0.02     0.00   0.934
  3928                      25.75       0.00       0.00       1.74       6.44      17.61      24.05        0.02     0.00   0.934
  3929                      25.75       0.00       0.00       1.74       6.44      17.61      24.05        0.02     0.00   0.934
  3930                      25.75       0.00       0.00       1.74       6.44      17.61      24.05        0.02     0.00   0.934
  3931                      25.75       0.00       0.00       1.74       6.44      17.61      24.05        0.02     0.00   0.934
  3932                      25.75       0.00       0.00       1.74       6.44      17.61      24.05        0.02     0.00   0.934
  3933                      25.75       0.00       0.00       1.74       6.44      17.61      24.05        0.02     0.00   0.934
  3934                      25.75       0.00       0.00       1.74       6.44      17.61      24.05        0.02     0.00   0.934
  3935                      25.75       0.00       0.00       1.74       6.44      17.61      24.05        0.02     0.00   0.934
  3936                      25.75       0.00       0.00       1.74       6.44      17.61      24.05        0.02     0.00   0.934
  3937                      25.75       0.00       0.00       1.74       6.44      17.61      24.05        0.02     0.00   0.934
  3938                      25.75       0.00       0.00       1.74       6.44      17.61      24.05        0.02     0.00   0.934
  3939                      25.75       0.00       0.00       1.74       6.44      17.61      24.05        0.02     0.00   0.934
  3940                      25.75       0.00       0.00       1.74       6.44      17.61      24.05        0.02     0.00   0.934
  3941                      25.75       0.00       0.00       1.74       6.44      17.61      24.05        0.02     0.00   0.934
  3942                      25.75       0.00       0.00       1.74       6.44      17.61      24.05        0.02     0.00   0.934
  3943                      25.75       0.00       0.00       1.74       6.44      17.61      24.05        0.02     0.00   0.934
  3944                      25.75       0.00       0.00       1.74       6.44      17.61      24.05        0.02     0.00   0.934
  3945                      25.75       0.00       0.00       1.74       6.44      17.61      24.05        0.02     0.00   0.934
  3946                      25.75       0.00       0.00       1.74       6.44      17.61      24.05        0.02     0.00   0.934
  3947                      25.75       0.00       0.00       1.74       6.44      17.61      24.05        0.02     0.00   0.934
  3948                      25.75       0.00       0.00       1.74       6.44      17.61      24.05        0.02     0.00   0.934
  3949                      25.75       0.00       0.00       1.74       6.44      17.61      24.05        0.02     0.00   0.934
  3950                      25.75       0.00       0.00       1.74       6.44      17.61      24.05        0.02     0.00   0.934
  3951                      25.75       0.00       0.00       1.74       6.44      17.61      24.05        0.02     0.00   0.934
  3952                      25.75       0.00       0.00       1.74       6.44      17.61      24.05        0.02     0.00   0.934
  3953                      25.75       0.00       0.00       1.74       6.44      17.61      24.05        0.02     0.00   0.934
  3954                      25.75       0.00       0.00       1.74       6.44      17.61      24.05        0.02     0.00   0.934
  3955                      25.75       0.00       0.00       1.74       6.44      17.61      24.05        0.02     0.00   0.934
  3956                      25.75       0.00       0.00       1.74       6.44      17.61      24.05        0.02     0.00   0.934
  4032                      25.75       0.00       0.00       1.74       6.44      17.61      24.05        0.02     0.00   0.934
  4033                      25.75       0.00       0.00       1.74       6.44      17.61      24.05        0.02     0.00   0.934
  4041                      25.75       0.00       0.00       1.74       6.44      17.61      24.05        0.02     0.00   0.934
  4051                      25.75       0.00       0.00       1.74       6.44      17.61      24.05        0.02     0.00   0.934
  4055                      25.75       0.00       0.00       1.74       6.44      17.61      24.05        0.02     0.00   0.934
  4056                      25.75       0.00       0.00       1.74       6.44      17.61      24.05        0.02     0.00   0.934
  4058                      25.75       0.00       0.00       1.74       6.44      17.61      24.05        0.02     0.00   0.934
  4385                      25.75       0.00       0.00       1.74       6.44      17.61      24.05        0.02     0.00   0.934
  4386                      25.75       0.00       0.00       1.74       6.44      17.61      24.05        0.02     0.00   0.934
  4387                      25.75       0.00       0.00       1.74       6.44      17.61      24.05        0.02     0.00   0.934
  4388                      25.75       0.00       0.00       1.74       6.44      17.61      24.05        0.02     0.00   0.934
  4389                      25.75       0.00       0.00       1.74       6.44      17.61      24.05        0.02     0.00   0.934
  4390                      25.75       0.00       0.00       1.74       6.44      17.61      24.05        0.02     0.00   0.934
  4391                      25.75       0.00       0.00       1.74       6.44      17.61      24.05        0.02     0.00   0.934
  4392                      25.75       0.00       0.00       1.74       6.44      17.61      24.05        0.02     0.00   0.934
  4393                      25.75       0.00       0.00       1.74       6.44      17.61      24.05        0.02     0.00   0.934
  4394                      25.75       0.00       0.00       1.74       6.44      17.61      24.05        0.02     0.00   0.934
  4395                      25.75       0.00       0.00       1.74       6.44      17.61      24.05        0.02     0.00   0.934
  4396                      25.75       0.00       0.00       1.74       6.44      17.61      24.05        0.02     0.00   0.934
  4397                      25.75       0.00       0.00       1.74       6.44      17.61      24.05        0.02     0.00   0.934
  4398                      25.75       0.00       0.00       1.74       6.44      17.61      24.05        0.02     0.00   0.934
  4429                      25.75       0.00       0.00       1.74       6.44      17.61      24.05        0.02     0.00   0.934
  4430                      25.75       0.00       0.00       1.74       6.44      17.61      24.05        0.02     0.00   0.934
  4431                      25.75       0.00       0.00       1.74       6.44      17.61      24.05        0.02     0.00   0.934
  4432                      25.75       0.00       0.00       1.74       6.44      17.61      24.05        0.02     0.00   0.934
  4433                      25.75       0.00       0.00       1.74       6.44      17.61      24.05        0.02     0.00   0.934
  4434                      25.75       0.00       0.00       1.74       6.44      17.61      24.05        0.02     0.00   0.934
  4435                      25.75       0.00       0.00       1.74       6.44      17.61      24.05        0.02     0.00   0.934
  4436                      25.75       0.00       0.00       1.74       6.44      17.61      24.05        0.02     0.00   0.934
  4437                      25.75       0.00       0.00       1.74       6.44      17.61      24.05        0.02     0.00   0.934
  4438                      25.75       0.00       0.00       1.74       6.44      17.61      24.05        0.02     0.00   0.934
  4439                      25.75       0.00       0.00       1.74       6.44      17.61      24.05        0.02     0.00   0.934
  4440                      25.75       0.00       0.00       1.74       6.44      17.61      24.05        0.02     0.00   0.934
  4441                      25.75       0.00       0.00       1.74       6.44      17.61      24.05        0.02     0.00   0.934
  4442                      25.75       0.00       0.00       1.74       6.44      17.61      24.05        0.02     0.00   0.934
  4443                      25.75       0.00       0.00       1.74       6.44      17.61      24.05        0.02     0.00   0.934
  4444                      25.75       0.00       0.00       1.74       6.44      17.61      24.05        0.02     0.00   0.934
  4445                      25.75       0.00       0.00       1.74       6.44      17.61      24.05        0.02     0.00   0.934
  4446                      25.75       0.00       0.00       1.74       6.44      17.61      24.05        0.02     0.00   0.934
  4447                      25.75       0.00       0.00       1.74       6.44      17.61      24.05        0.02     0.00   0.934
  4448                      25.75       0.00       0.00       1.74       6.44      17.61      24.05        0.02     0.00   0.934
  4449                      25.75       0.00       0.00       1.74       6.44      17.61      24.05        0.02     0.00   0.934
  4450                      25.75       0.00       0.00       1.74       6.44      17.61      24.05        0.02     0.00   0.934
  4451                      25.75       0.00       0.00       1.74       6.44      17.61      24.05        0.02     0.00   0.934
  4452                      25.75       0.00       0.00       1.74       6.44      17.61      24.05        0.02     0.00   0.934
  4453                      25.75       0.00       0.00       1.74       6.44      17.61      24.05        0.02     0.00   0.934
  4454                      25.75       0.00       0.00       1.74       6.44      17.61      24.05        0.02     0.00   0.934
  4462                      25.75       0.00       0.00       1.74       6.44      17.61      24.05        0.02     0.00   0.934
  4463                      25.75       0.00       0.00       1.74       6.44      17.61      24.05        0.02     0.00   0.934
  4563                      25.75       0.00       0.00       1.74       6.44      17.61      24.05        0.02     0.00   0.934
  4564                      25.75       0.00       0.00       1.74       6.44      17.61      24.05        0.02     0.00   0.934
  4565                      25.75       0.00       0.00       1.74       6.44      17.61      24.05        0.02     0.00   0.934
  4566                      25.75       0.00       0.00       1.74       6.44      17.61      24.05        0.02     0.00   0.934
  4567                      25.75       0.00       0.00       1.74       6.44      17.61      24.05        0.02     0.00   0.934
  4568                      25.75       0.00       0.00       1.74       6.44      17.61      24.05        0.02     0.00   0.934
  4569                      25.75       0.00       0.00       1.74       6.44      17.61      24.05        0.02     0.00   0.934
  4570                      25.75       0.00       0.00       1.74       6.44      17.61      24.05        0.02     0.00   0.934
  4571                      25.75       0.00       0.00       1.74       6.44      17.61      24.05        0.02     0.00   0.934
  4572                      25.75       0.00       0.00       1.74       6.44      17.61      24.05        0.02     0.00   0.934
  4573                      25.75       0.00       0.00       1.74       6.44      17.61      24.05        0.02     0.00   0.934
  4574                      25.75       0.00       0.00       1.74       6.44      17.61      24.05        0.02     0.00   0.934
  4575                      25.75       0.00       0.00       1.74       6.44      17.61      24.05        0.02     0.00   0.934
  4576                      25.75       0.00       0.00       1.74       6.44      17.61      24.05        0.02     0.00   0.934
  4577                      25.75       0.00       0.00       1.74       6.44      17.61      24.05        0.02     0.00   0.934
  4578                      25.75       0.00       0.00       1.74       6.44      17.61      24.05        0.02     0.00   0.934
  4579                      25.75       0.00       0.00       1.74       6.44      17.61      24.05        0.02     0.00   0.934
  4580                      25.75       0.00       0.00       1.74       6.44      17.61      24.05        0.02     0.00   0.934
  4581                      25.75       0.00       0.00       1.74       6.44      17.61      24.05        0.02     0.00   0.934
  4624                      25.75       0.00       0.00       1.74       6.44      17.61      24.05        0.02     0.00   0.934
  4625                      25.75       0.00       0.00       1.74       6.44      17.61      24.05        0.02     0.00   0.934
  4644                      25.75       0.00       0.00       1.74       6.44      17.61      24.05        0.02     0.00   0.934
  4645                      25.75       0.00       0.00       1.74       6.44      17.61      24.05        0.02     0.00   0.934
  4646                      25.75       0.00       0.00       1.74       6.44      17.61      24.05        0.02     0.00   0.934
  4679                      25.75       0.00       0.00       1.74       6.44      17.61      24.05        0.02     0.00   0.934
  4680                      25.75       0.00       0.00       1.74       6.44      17.61      24.05        0.02     0.00   0.934
  4681                      25.75       0.00       0.00       1.74       6.44      17.61      24.05        0.02     0.00   0.934
  4682                      25.75       0.00       0.00       1.74       6.44      17.61      24.05        0.02     0.00   0.934
  4683                      25.75       0.00       0.00       1.74       6.44      17.61      24.05        0.02     0.00   0.934
  4711                      25.75       0.00       0.00       1.74       6.44      17.61      24.05        0.02     0.00   0.934
  4712                      25.75       0.00       0.00       1.74       6.44      17.61      24.05        0.02     0.00   0.934
  4713                      25.75       0.00       0.00       1.74       6.44      17.61      24.05        0.02     0.00   0.934
  4714                      25.75       0.00       0.00       1.74       6.44      17.61      24.05        0.02     0.00   0.934
  4715                      25.75       0.00       0.00       1.74       6.44      17.61      24.05        0.02     0.00   0.934
  4716                      25.75       0.00       0.00       1.74       6.44      17.61      24.05        0.02     0.00   0.934
  4717                      25.75       0.00       0.00       1.74       6.44      17.61      24.05        0.02     0.00   0.934
  4718                      25.75       0.00       0.00       1.74       6.44      17.61      24.05        0.02     0.00   0.934
  4722                      25.75       0.00       0.00       1.74       6.44      17.61      24.05        0.02     0.00   0.934
  4760                      25.75       0.00       0.00       1.74       6.44      17.61      24.05        0.02     0.00   0.934
  4761                      25.75       0.00       0.00       1.74       6.44      17.61      24.05        0.02     0.00   0.934
  4765                      25.75       0.00       0.00       1.74       6.44      17.61      24.05        0.02     0.00   0.934
  4766                      25.75       0.00       0.00       1.74       6.44      17.61      24.05        0.02     0.00   0.934
  4767                      25.75       0.00       0.00       1.74       6.44      17.61      24.05        0.02     0.00   0.934
  4768                      25.75       0.00       0.00       1.74       6.44      17.61      24.05        0.02     0.00   0.934
  4769                      25.75       0.00       0.00       1.74       6.44      17.61      24.05        0.02     0.00   0.934
  4855                      25.75       0.00       0.00       1.74       6.44      17.61      24.05        0.02     0.00   0.934
  4856                      25.75       0.00       0.00       1.74       6.44      17.61      24.05        0.02     0.00   0.934
  5284                      25.75       0.00       0.00       1.74       6.44      17.61      24.05        0.02     0.00   0.934
  5285                      25.75       0.00       0.00       1.74       6.44      17.61      24.05        0.02     0.00   0.934
  5286                      25.75       0.00       0.00       1.74       6.44      17.61      24.05        0.02     0.00   0.934
  5287                      25.75       0.00       0.00       1.74       6.44      17.61      24.05        0.02     0.00   0.934
  5288                      25.75       0.00       0.00       1.74       6.44      17.61      24.05        0.02     0.00   0.934
  5289                      25.75       0.00       0.00       1.74       6.44      17.61      24.05        0.02     0.00   0.934
  5290                      25.75       0.00       0.00       1.74       6.44      17.61      24.05        0.02     0.00   0.934
  5291                      25.75       0.00       0.00       1.74       6.44      17.61      24.05        0.02     0.00   0.934
  5292                      25.75       0.00       0.00       1.74       6.44      17.61      24.05        0.02     0.00   0.934
  5293                      25.75       0.00       0.00       1.74       6.44      17.61      24.05        0.02     0.00   0.934
  5294                      25.75       0.00       0.00       1.74       6.44      17.61      24.05        0.02     0.00   0.934
  5295                      25.75       0.00       0.00       1.74       6.44      17.61      24.05        0.02     0.00   0.934
  5296                      25.75       0.00       0.00       1.74       6.44      17.61      24.05        0.02     0.00   0.934
  5297                      25.75       0.00       0.00       1.74       6.44      17.61      24.05        0.02     0.00   0.934
  5298                      25.75       0.00       0.00       1.74       6.44      17.61      24.05        0.02     0.00   0.934
  5299                      25.75       0.00       0.00       1.74       6.44      17.61      24.05        0.02     0.00   0.934
  5300                      25.75       0.00       0.00       1.74       6.44      17.61      24.05        0.02     0.00   0.934
  5301                      25.75       0.00       0.00       1.74       6.44      17.61      24.05        0.02     0.00   0.934
  5302                      25.75       0.00       0.00       1.74       6.44      17.61      24.05        0.02     0.00   0.934
  5303                      25.75       0.00       0.00       1.74       6.44      17.61      24.05        0.02     0.00   0.934
  5304                      25.75       0.00       0.00       1.74       6.44      17.61      24.05        0.02     0.00   0.934
  5305                      25.75       0.00       0.00       1.74       6.44      17.61      24.05        0.02     0.00   0.934
  5306                      25.75       0.00       0.00       1.74       6.44      17.61      24.05        0.02     0.00   0.934
  5307                      25.75       0.00       0.00       1.74       6.44      17.61      24.05        0.02     0.00   0.934
  5308                      25.75       0.00       0.00       1.74       6.44      17.61      24.05        0.02     0.00   0.934
  5309                      25.75       0.00       0.00       1.74       6.44      17.61      24.05        0.02     0.00   0.934
  5310                      25.75       0.00       0.00       1.74       6.44      17.61      24.05        0.02     0.00   0.934
  5311                      25.75       0.00       0.00       1.74       6.44      17.61      24.05        0.02     0.00   0.934
  5312                      25.75       0.00       0.00       1.74       6.44      17.61      24.05        0.02     0.00   0.934
  5313                      25.75       0.00       0.00       1.74       6.44      17.61      24.05        0.02     0.00   0.934
  5314                      25.75       0.00       0.00       1.74       6.44      17.61      24.05        0.02     0.00   0.934
  5315                      25.75       0.00       0.00       1.74       6.44      17.61      24.05        0.02     0.00   0.934
  5316                      25.75       0.00       0.00       1.74       6.44      17.61      24.05        0.02     0.00   0.934
  5317                      25.75       0.00       0.00       1.74       6.44      17.61      24.05        0.02     0.00   0.934
  5318                      25.75       0.00       0.00       1.74       6.44      17.61      24.05        0.02     0.00   0.934
  5319                      25.75       0.00       0.00       1.74       6.44      17.61      24.05        0.02     0.00   0.934
  5320                      25.75       0.00       0.00       1.74       6.44      17.61      24.05        0.02     0.00   0.934
  5321                      25.75       0.00       0.00       1.74       6.44      17.61      24.05        0.02     0.00   0.934
  5322                      25.75       0.00       0.00       1.74       6.44      17.61      24.05        0.02     0.00   0.934
  5323                      25.75       0.00       0.00       1.74       6.44      17.61      24.05        0.02     0.00   0.934
  5324                      25.75       0.00       0.00       1.74       6.44      17.61      24.05        0.02     0.00   0.934
  5325                      25.75       0.00       0.00       1.74       6.44      17.61      24.05        0.02     0.00   0.934
  5326                      25.75       0.00       0.00       1.74       6.44      17.61      24.05        0.02     0.00   0.934
  5327                      25.75       0.00       0.00       1.74       6.44      17.61      24.05        0.02     0.00   0.934
  5328                      25.75       0.00       0.00       1.74       6.44      17.61      24.05        0.02     0.00   0.934
  5329                      25.75       0.00       0.00       1.74       6.44      17.61      24.05        0.02     0.00   0.934
  5330                      25.75       0.00       0.00       1.74       6.44      17.61      24.05        0.02     0.00   0.934
  5333                      25.75       0.00       0.00       1.74       6.44      17.61      24.05        0.02     0.00   0.934
  5334                      25.75       0.00       0.00       1.74       6.44      17.61      24.05        0.02     0.00   0.934
  6040                      25.75       0.00       0.00       1.74       6.44      17.61      24.05        0.02     0.00   0.934
  6041                      25.75       0.00       0.00       1.74       6.44      17.61      24.05        0.02     0.00   0.934
  6162                      25.75       0.00       0.00       1.74       6.44      17.61      24.05        0.02     0.00   0.934
  7207                      25.75       0.00       0.00       1.74       6.44      17.61      24.05        0.02     0.00   0.934
  7208                      25.75       0.00       0.00       1.74       6.44      17.61      24.05        0.02     0.00   0.934
  7213                      25.75       0.00       0.00       1.74       6.44      17.61      24.05        0.02     0.00   0.934
  7214                      25.75       0.00       0.00       1.74       6.44      17.61      24.05        0.02     0.00   0.934
  7219                      25.75       0.00       0.00       1.74       6.44      17.61      24.05        0.02     0.00   0.934
  7220                      25.75       0.00       0.00       1.74       6.44      17.61      24.05        0.02     0.00   0.934
  7221                      25.75       0.00       0.00       1.74       6.44      17.61      24.05        0.02     0.00   0.934
  7225                      25.75       0.00       0.00       1.74       6.44      17.61      24.05        0.02     0.00   0.934
  7229                      25.75       0.00       0.00       1.74       6.44      17.61      24.05        0.02     0.00   0.934
  7231                      25.75       0.00       0.00       1.74       6.44      17.61      24.05        0.02     0.00   0.934
  7268                      25.75       0.00       0.00       1.74       6.44      17.61      24.05        0.02     0.00   0.934
  7269                      25.75       0.00       0.00       1.74       6.44      17.61      24.05        0.02     0.00   0.934
  7271                      25.75       0.00       0.00       1.74       6.44      17.61      24.05        0.02     0.00   0.934
  7272                      25.75       0.00       0.00       1.74       6.44      17.61      24.05        0.02     0.00   0.934
  7273                      25.75       0.00       0.00       1.74       6.44      17.61      24.05        0.02     0.00   0.934
  7433                      25.75       0.00       0.00       1.74       6.44      17.61      24.05        0.02     0.00   0.934
  7434                      25.75       0.00       0.00       1.74       6.44      17.61      24.05        0.02     0.00   0.934
  7544                      25.75       0.00       0.00       1.74       6.44      17.61      24.05        0.02     0.00   0.934
  7545                      25.75       0.00       0.00       1.74       6.44      17.61      24.05        0.02     0.00   0.934
  8737                      25.75       0.00       0.00       1.74       6.44      17.61      24.05        0.02     0.00   0.934
  8818                      25.75       0.00       0.00       1.74       6.44      17.61      24.05        0.02     0.00   0.934
  9942                      25.75       0.00       0.00       1.74       6.44      17.61      24.05        0.02     0.00   0.934
  9957                      25.75       0.00       0.00       1.74       6.44      17.61      24.05        0.02     0.00   0.934
  4399                      25.75       0.00       0.00       1.68       6.44      17.66      24.10        0.01     0.00   0.936
  4400                      25.75       0.00       0.00       1.68       6.44      17.66      24.10        0.01     0.00   0.936
  4401                      25.75       0.00       0.00       1.68       6.44      17.66      24.10        0.01     0.00   0.936
  4402                      25.75       0.00       0.00       1.68       6.44      17.66      24.10        0.01     0.00   0.936
  4403                      25.75       0.00       0.00       1.68       6.44      17.66      24.10        0.01     0.00   0.936
  4404                      25.75       0.00       0.00       1.68       6.44      17.66      24.10        0.01     0.00   0.936
  4405                      25.75       0.00       0.00       1.68       6.44      17.66      24.10        0.01     0.00   0.936
  4406                      25.75       0.00       0.00       1.68       6.44      17.66      24.10        0.01     0.00   0.936
  4407                      25.75       0.00       0.00       1.68       6.44      17.66      24.10        0.01     0.00   0.936
  4408                      25.75       0.00       0.00       1.68       6.44      17.66      24.10        0.01     0.00   0.936
  4409                      25.75       0.00       0.00       1.68       6.44      17.66      24.10        0.01     0.00   0.936
  4410                      25.75       0.00       0.00       1.68       6.44      17.66      24.10        0.01     0.00   0.936
  4411                      25.75       0.00       0.00       1.68       6.44      17.66      24.10        0.01     0.00   0.936
  4412                      25.75       0.00       0.00       1.68       6.44      17.66      24.10        0.01     0.00   0.936
  4423                      25.75       0.00       0.00       1.68       6.44      17.66      24.10        0.01     0.00   0.936
  4424                      25.75       0.00       0.00       1.68       6.44      17.66      24.10        0.01     0.00   0.936
  4425                      25.75       0.00       0.00       1.68       6.44      17.66      24.10        0.01     0.00   0.936
  4426                      25.75       0.00       0.00       1.68       6.44      17.66      24.10        0.01     0.00   0.936
  4427                      25.75       0.00       0.00       1.68       6.44      17.66      24.10        0.01     0.00   0.936
  4428                      25.75       0.00       0.00       1.68       6.44      17.66      24.10        0.01     0.00   0.936
  4455                      25.75       0.00       0.00       1.68       6.44      17.66      24.10        0.01     0.00   0.936
  4456                      25.75       0.00       0.00       1.68       6.44      17.66      24.10        0.01     0.00   0.936
  4457                      25.75       0.00       0.00       1.68       6.44      17.66      24.10        0.01     0.00   0.936
  4458                      25.75       0.00       0.00       1.68       6.44      17.66      24.10        0.01     0.00   0.936
  4459                      25.75       0.00       0.00       1.68       6.44      17.66      24.10        0.01     0.00   0.936
  4460                      25.75       0.00       0.00       1.68       6.44      17.66      24.10        0.01     0.00   0.936
  4461                      25.75       0.00       0.00       1.68       6.44      17.66      24.10        0.01     0.00   0.936
  4464                      25.75       0.00       0.00       1.68       6.44      17.66      24.10        0.01     0.00   0.936
  4465                      25.75       0.00       0.00       1.68       6.44      17.66      24.10        0.01     0.00   0.936
  4466                      25.75       0.00       0.00       1.68       6.44      17.66      24.10        0.01     0.00   0.936
  4467                      25.75       0.00       0.00       1.68       6.44      17.66      24.10        0.01     0.00   0.936
  4468                      25.75       0.00       0.00       1.68       6.44      17.66      24.10        0.01     0.00   0.936
  4469                      25.75       0.00       0.00       1.68       6.44      17.66      24.10        0.01     0.00   0.936
  4470                      25.75       0.00       0.00       1.68       6.44      17.66      24.10        0.01     0.00   0.936
  4471                      25.75       0.00       0.00       1.68       6.44      17.66      24.10        0.01     0.00   0.936
  4472                      25.75       0.00       0.00       1.68       6.44      17.66      24.10        0.01     0.00   0.936
  4473                      25.75       0.00       0.00       1.68       6.44      17.66      24.10        0.01     0.00   0.936
  4474                      25.75       0.00       0.00       1.68       6.44      17.66      24.10        0.01     0.00   0.936
  4628                      25.75       0.00       0.00       1.68       6.44      17.66      24.10        0.01     0.00   0.936
  4631                      25.75       0.00       0.00       1.68       6.44      17.66      24.10        0.01     0.00   0.936
  4632                      25.75       0.00       0.00       1.68       6.44      17.66      24.10        0.01     0.00   0.936
  4633                      25.75       0.00       0.00       1.68       6.44      17.66      24.10        0.01     0.00   0.936
  4634                      25.75       0.00       0.00       1.68       6.44      17.66      24.10        0.01     0.00   0.936
  4637                      25.75       0.00       0.00       1.68       6.44      17.66      24.10        0.01     0.00   0.936
  4686                      25.75       0.00       0.00       1.68       6.44      17.66      24.10        0.01     0.00   0.936
  4687                      25.75       0.00       0.00       1.68       6.44      17.66      24.10        0.01     0.00   0.936
  4688                      25.75       0.00       0.00       1.68       6.44      17.66      24.10        0.01     0.00   0.936
  5032                      25.75       0.00       0.00       1.68       6.44      17.66      24.10        0.01     0.00   0.936
  5331                      25.75       0.00       0.00       1.68       6.44      17.66      24.10        0.01     0.00   0.936
  5332                      25.75       0.00       0.00       1.68       6.44      17.66      24.10        0.01     0.00   0.936
  5335                      25.75       0.00       0.00       1.68       6.44      17.66      24.10        0.01     0.00   0.936
  5336                      25.75       0.00       0.00       1.68       6.44      17.66      24.10        0.01     0.00   0.936
  5337                      25.75       0.00       0.00       1.68       6.44      17.66      24.10        0.01     0.00   0.936
  5338                      25.75       0.00       0.00       1.68       6.44      17.66      24.10        0.01     0.00   0.936
  5339                      25.75       0.00       0.00       1.68       6.44      17.66      24.10        0.01     0.00   0.936
  5340                      25.75       0.00       0.00       1.68       6.44      17.66      24.10        0.01     0.00   0.936
  5341                      25.75       0.00       0.00       1.68       6.44      17.66      24.10        0.01     0.00   0.936
  5342                      25.75       0.00       0.00       1.68       6.44      17.66      24.10        0.01     0.00   0.936
  5343                      25.75       0.00       0.00       1.68       6.44      17.66      24.10        0.01     0.00   0.936
  5344                      25.75       0.00       0.00       1.68       6.44      17.66      24.10        0.01     0.00   0.936
  5345                      25.75       0.00       0.00       1.68       6.44      17.66      24.10        0.01     0.00   0.936
  5346                      25.75       0.00       0.00       1.68       6.44      17.66      24.10        0.01     0.00   0.936
  5347                      25.75       0.00       0.00       1.68       6.44      17.66      24.10        0.01     0.00   0.936
  5348                      25.75       0.00       0.00       1.68       6.44      17.66      24.10        0.01     0.00   0.936
  5349                      25.75       0.00       0.00       1.68       6.44      17.66      24.10        0.01     0.00   0.936
  5350                      25.75       0.00       0.00       1.68       6.44      17.66      24.10        0.01     0.00   0.936
  6088                      25.75       0.00       0.00       1.68       6.44      17.66      24.10        0.01     0.00   0.936
  7275                      25.75       0.00       0.00       1.68       6.44      17.66      24.10        0.01     0.00   0.936
  9955                      25.75       0.00       0.00       1.68       6.44      17.66      24.10        0.01     0.00   0.936
  9956                      25.75       0.00       0.00       1.68       6.44      17.66      24.10        0.01     0.00   0.936
  
  
  ****************************
  Subcatchment Washoff Summary
  ****************************
  
  ----------------------------------
                                 COD
  Subcatchment                    kg
  ----------------------------------
  2707                         6.325
  2708                         6.325
  2709                         6.325
  2710                         6.325
  2712                         6.325
  2713                         6.325
  2714                         6.325
  2715                         6.325
  2716                         6.325
  2717                         6.325
  2718                         6.325
  2719                         6.325
  2721                         6.325
  2722                         6.325
  2723                         6.325
  2724                         6.325
  2725                         6.325
  2726                         6.325
  2727                         6.325
  2728                         6.325
  2729                         6.325
  2730                         6.325
  2731                         6.325
  2732                         6.325
  2733                         6.325
  2734                         6.325
  2735                         6.325
  2736                         6.325
  2737                         6.325
  2738                         6.325
  2739                         6.325
  2740                         6.325
  2741                         6.325
  2742                         6.325
  2743                         6.325
  2744                         6.325
  2745                         6.325
  2746                         6.325
  2747                         6.325
  2748                         6.325
  2749                         6.325
  2750                         6.325
  2751                         6.325
  2752                         6.325
  2753                         6.325
  2754                         6.325
  2755                         6.325
  2756                         6.325
  2964                         6.325
  2969                         6.325
  2970                         6.325
  2974                         6.325
  2975                         6.325
  2976                         6.325
  2977                         6.325
  2978                         6.325
  2979                         6.325
  2980                         6.325
  2981                         6.325
  2982                         6.325
  2984                         6.325
  2985                         6.325
  3925                         6.325
  3926                         6.325
  3927                         6.325
  3928                         6.325
  3929                         6.325
  3930                         6.325
  3931                         6.325
  3932                         6.325
  3933                         6.325
  3934                         6.325
  3935                         6.325
  3936                         6.325
  3937                         6.325
  3938                         6.325
  3939                         6.325
  3940                         6.325
  3941                         6.325
  3942                         6.325
  3943                         6.325
  3944                         6.325
  3945                         6.325
  3946                         6.325
  3947                         6.325
  3948                         6.325
  3949                         6.325
  3950                         6.325
  3951                         6.325
  3952                         6.325
  3953                         6.325
  3954                         6.325
  3955                         6.325
  3956                         6.325
  4032                         6.325
  4033                         6.325
  4041                         6.325
  4051                         6.325
  4055                         6.325
  4056                         6.325
  4058                         6.325
  4385                         6.325
  4386                         6.325
  4387                         6.325
  4388                         6.325
  4389                         6.325
  4390                         6.325
  4391                         6.325
  4392                         6.325
  4393                         6.325
  4394                         6.325
  4395                         6.325
  4396                         6.325
  4397                         6.325
  4398                         6.325
  4429                         6.325
  4430                         6.325
  4431                         6.325
  4432                         6.325
  4433                         6.325
  4434                         6.325
  4435                         6.325
  4436                         6.325
  4437                         6.325
  4438                         6.325
  4439                         6.325
  4440                         6.325
  4441                         6.325
  4442                         6.325
  4443                         6.325
  4444                         6.325
  4445                         6.325
  4446                         6.325
  4447                         6.325
  4448                         6.325
  4449                         6.325
  4450                         6.325
  4451                         6.325
  4452                         6.325
  4453                         6.325
  4454                         6.325
  4462                         6.325
  4463                         6.325
  4563                         6.325
  4564                         6.325
  4565                         6.325
  4566                         6.325
  4567                         6.325
  4568                         6.325
  4569                         6.325
  4570                         6.325
  4571                         6.325
  4572                         6.325
  4573                         6.325
  4574                         6.325
  4575                         6.325
  4576                         6.325
  4577                         6.325
  4578                         6.325
  4579                         6.325
  4580                         6.325
  4581                         6.325
  4624                         6.325
  4625                         6.325
  4644                         6.325
  4645                         6.325
  4646                         6.325
  4679                         6.325
  4680                         6.325
  4681                         6.325
  4682                         6.325
  4683                         6.325
  4711                         6.325
  4712                         6.325
  4713                         6.325
  4714                         6.325
  4715                         6.325
  4716                         6.325
  4717                         6.325
  4718                         6.325
  4722                         6.325
  4760                         6.325
  4761                         6.325
  4765                         6.325
  4766                         6.325
  4767                         6.325
  4768                         6.325
  4769                         6.325
  4855                         6.325
  4856                         6.325
  5284                         6.325
  5285                         6.325
  5286                         6.325
  5287                         6.325
  5288                         6.325
  5289                         6.325
  5290                         6.325
  5291                         6.325
  5292                         6.325
  5293                         6.325
  5294                         6.325
  5295                         6.325
  5296                         6.325
  5297                         6.325
  5298                         6.325
  5299                         6.325
  5300                         6.325
  5301                         6.325
  5302                         6.325
  5303                         6.325
  5304                         6.325
  5305                         6.325
  5306                         6.325
  5307                         6.325
  5308                         6.325
  5309                         6.325
  5310                         6.325
  5311                         6.325
  5312                         6.325
  5313                         6.325
  5314                         6.325
  5315                         6.325
  5316                         6.325
  5317                         6.325
  5318                         6.325
  5319                         6.325
  5320                         6.325
  5321                         6.325
  5322                         6.325
  5323                         6.325
  5324                         6.325
  5325                         6.325
  5326                         6.325
  5327                         6.325
  5328                         6.325
  5329                         6.325
  5330                         6.325
  5333                         6.325
  5334                         6.325
  6040                         6.325
  6041                         6.325
  6162                         6.325
  7207                         6.325
  7208                         6.325
  7213                         6.325
  7214                         6.325
  7219                         6.325
  7220                         6.325
  7221                         6.325
  7225                         6.325
  7229                         6.325
  7231                         6.325
  7268                         6.325
  7269                         6.325
  7271                         6.325
  7272                         6.325
  7273                         6.325
  7433                         6.325
  7434                         6.325
  7544                         6.325
  7545                         6.325
  8737                         6.325
  8818                         6.325
  9942                         6.325
  9957                         6.325
  4399                         1.902
  4400                         1.902
  4401                         1.902
  4402                         1.902
  4403                         1.902
  4404                         1.902
  4405                         1.902
  4406                         1.902
  4407                         1.902
  4408                         1.902
  4409                         1.902
  4410                         1.902
  4411                         1.902
  4412                         1.902
  4423                         1.902
  4424                         1.902
  4425                         1.902
  4426                         1.902
  4427                         1.902
  4428                         1.902
  4455                         1.902
  4456                         1.902
  4457                         1.902
  4458                         1.902
  4459                         1.902
  4460                         1.902
  4461                         1.902
  4464                         1.902
  4465                         1.902
  4466                         1.902
  4467                         1.902
  4468                         1.902
  4469                         1.902
  4470                         1.902
  4471                         1.902
  4472                         1.902
  4473                         1.902
  4474                         1.902
  4628                         1.902
  4631                         1.902
  4632                         1.902
  4633                         1.902
  4634                         1.902
  4637                         1.902
  4686                         1.902
  4687                         1.902
  4688                         1.902
  5032                         1.902
  5331                         1.902
  5332                         1.902
  5335                         1.902
  5336                         1.902
  5337                         1.902
  5338                         1.902
  5339                         1.902
  5340                         1.902
  5341                         1.902
  5342                         1.902
  5343                         1.902
  5344                         1.902
  5345                         1.902
  5346                         1.902
  5347                         1.902
  5348                         1.902
  5349                         1.902
  5350                         1.902
  6088                         1.902
  7275                         1.902
  9955                         1.902
  9956                         1.902
  ----------------------------------
  System                    1809.249
  
  
  ******************
  Node Depth Summary
  ******************
  
  ---------------------------------------------------------------------------------
                                 Average  Maximum  Maximum  Time of Max    Reported
                                   Depth    Depth      HGL   Occurrence   Max Depth
  Node                 Type       Meters   Meters   Meters  days hr:min      Meters
  ---------------------------------------------------------------------------------
  Node_02706           JUNCTION     2.82     4.68   101.52     0  03:12        0.00
  Node_02707           JUNCTION     0.90     2.32   101.75     0  03:03        0.00
  Node_02708           JUNCTION     0.79     2.08   101.84     0  03:03        0.00
  Node_02709           JUNCTION     0.89     2.23   101.86     0  03:03        0.00
  Node_02711           JUNCTION     0.57     1.94   101.86     0  03:03        0.00
  Node_02712           JUNCTION     0.57     1.95   101.85     0  03:03        0.00
  Node_02713           JUNCTION     0.62     1.98   101.83     0  03:03        0.00
  Node_02714           JUNCTION     0.30     1.44   101.84     0  03:03        0.00
  Node_02715           JUNCTION     0.63     1.97   101.78     0  03:03        0.00
  Node_02716           JUNCTION     0.67     2.01   101.73     0  03:03        0.00
  Node_02717           JUNCTION     0.73     2.08   101.71     0  03:03        0.00
  Node_02718           JUNCTION     0.74     2.15   101.75     0  03:03        0.00
  Node_02720           JUNCTION     0.76     2.19   101.76     0  03:03        0.00
  Node_02721           JUNCTION     1.06     2.53   101.78     0  03:03        0.00
  Node_02722           JUNCTION     0.13     0.16   101.96     0  03:00        0.00
  Node_02723           JUNCTION     1.00     2.45   101.75     0  03:03        0.00
  Node_02724           JUNCTION     0.85     2.28   101.70     0  03:03        0.00
  Node_02725           JUNCTION     0.88     2.28   101.64     0  03:03        0.00
  Node_02726           JUNCTION     0.95     2.32   101.58     0  03:03        0.00
  Node_02727           JUNCTION     1.05     2.38   101.51     0  03:03        0.00
  Node_02728           JUNCTION     0.48     1.43   101.51     0  03:03        0.00
  Node_02729           JUNCTION     1.09     2.38   101.44     0  03:03        0.00
  Node_02730           JUNCTION     1.11     2.33   101.36     0  03:03        0.00
  Node_02731           JUNCTION     1.53     2.68   101.27     0  03:03        0.00
  Node_02732           JUNCTION     1.10     2.19   101.21     0  03:02        0.00
  Node_02733           JUNCTION     1.10     2.25   101.25     0  03:12        0.00
  Node_02734           JUNCTION     1.38     2.57   101.28     0  03:12        0.00
  Node_02735           JUNCTION     1.28     2.47   101.28     0  03:12        0.00
  Node_02736           JUNCTION     1.47     2.69   101.30     0  03:12        0.00
  Node_02737           JUNCTION     1.45     2.70   101.32     0  03:12        0.00
  Node_02738           JUNCTION     1.28     2.58   101.35     0  03:13        0.00
  Node_02739           JUNCTION     1.16     2.51   101.38     0  03:12        0.00
  Node_02740           JUNCTION     1.17     2.55   101.39     0  03:12        0.00
  Node_02741           JUNCTION     0.86     2.10   101.40     0  03:12        0.00
  Node_02742           JUNCTION     1.19     2.61   101.42     0  03:12        0.00
  Node_02743           JUNCTION     1.61     3.07   101.44     0  03:12        0.00
  Node_02744           JUNCTION     0.83     2.10   101.45     0  03:12        0.00
  Node_02745           JUNCTION     1.34     2.83   101.45     0  03:12        0.00
  Node_02746           JUNCTION     1.24     2.78   101.47     0  03:12        0.00
  Node_02747           JUNCTION     0.30     1.12   101.47     0  03:12        0.00
  Node_02748           JUNCTION     0.26     1.02   101.47     0  03:12        0.00
  Node_02749           JUNCTION     1.26     2.84   101.48     0  03:12        0.00
  Node_02750           JUNCTION     1.27     2.89   101.49     0  03:12        0.00
  Node_02751           JUNCTION     1.25     2.91   101.51     0  03:12        0.00
  Node_02752           JUNCTION     1.27     2.97   101.51     0  03:12        0.00
  Node_02753           JUNCTION     1.30     3.04   101.52     0  03:12        0.00
  Node_02754           JUNCTION     1.34     3.20   101.52     0  03:12        0.00
  Node_02755           JUNCTION     2.27     4.13   101.52     0  03:12        0.00
  Node_02963           JUNCTION     0.57     1.81   101.72     0  03:03        0.00
  Node_02968           JUNCTION     0.44     1.26   101.38     0  03:12        0.00
  Node_02969           JUNCTION     0.55     1.56   101.44     0  03:12        0.00
  Node_02973           JUNCTION     1.80     3.63   101.52     0  03:12        0.00
  Node_02974           JUNCTION     2.07     4.38   101.51     0  03:12        0.00
  Node_02975           JUNCTION     2.07     4.37   101.51     0  03:12        0.00
  Node_02976           JUNCTION     2.08     4.32   101.51     0  03:12        0.00
  Node_02977           JUNCTION     2.03     4.20   101.54     0  03:12        0.00
  Node_02978           JUNCTION     1.91     4.05   101.58     0  03:12        0.00
  Node_02979           JUNCTION     2.04     4.37   101.49     0  03:12        0.00
  Node_02980           JUNCTION     2.00     4.39   101.47     0  03:12        0.00
  Node_02981           JUNCTION     2.03     4.51   101.46     0  03:13        0.00
  Node_02983           JUNCTION     0.43     1.23   101.35     0  03:12        0.00
  Node_02984           JUNCTION     2.37     4.54   101.52     0  03:12        0.00
  Node_03924           JUNCTION     0.17     1.00   101.82     0  03:10        0.00
  Node_03925           JUNCTION     0.47     1.64   102.00     0  03:12        0.00
  Node_03926           JUNCTION     0.03     0.53   102.00     0  03:12        0.00
  Node_03927           JUNCTION     0.45     1.62   102.00     0  03:12        0.00
  Node_03928           JUNCTION     0.47     1.66   102.00     0  03:12        0.00
  Node_03929           JUNCTION     0.48     1.69   102.00     0  03:12        0.00
  Node_03930           JUNCTION     0.51     1.74   101.99     0  03:12        0.00
  Node_03931           JUNCTION     0.51     1.74   101.99     0  03:12        0.00
  Node_03932           JUNCTION     0.55     1.81   101.98     0  03:12        0.00
  Node_03933           JUNCTION     0.56     1.83   101.95     0  03:12        0.00
  Node_03934           JUNCTION     0.18     1.10   101.96     0  03:12        0.00
  Node_03935           JUNCTION     0.64     1.96   101.94     0  03:12        0.00
  Node_03936           JUNCTION     0.67     1.99   101.92     0  03:11        0.00
  Node_03937           JUNCTION     1.24     1.73   101.89     0  03:12        0.00
  Node_03938           JUNCTION     1.41     3.14   102.34     0  02:23        0.00
  Node_03939           JUNCTION     1.52     3.29   102.32     0  02:23        0.00
  Node_03940           JUNCTION     1.59     3.37   102.30     0  02:23        0.00
  Node_03941           JUNCTION     1.68     3.46   102.27     0  02:23        0.00
  Node_03942           JUNCTION     1.72     3.48   102.23     0  02:23        0.00
  Node_03943           JUNCTION     1.81     3.58   102.19     0  02:23        0.00
  Node_03944           JUNCTION     1.90     3.69   102.17     0  02:23        0.00
  Node_03945           JUNCTION     1.96     3.78   102.20     0  03:09        0.00
  Node_03946           JUNCTION     2.02     3.86   102.22     0  03:13        0.00
  Node_03947           JUNCTION     2.33     4.33   102.22     0  03:11        0.00
  Node_03948           JUNCTION     2.31     4.37   102.22     0  03:11        0.00
  Node_03949           JUNCTION     2.42     4.51   102.21     0  03:11        0.00
  Node_03950           JUNCTION     2.30     4.43   102.20     0  03:11        0.00
  Node_03951           JUNCTION     2.30     4.48   102.17     0  03:11        0.00
  Node_03952           JUNCTION     2.32     4.55   102.14     0  03:11        0.00
  Node_03953           JUNCTION     2.24     4.52   102.09     0  03:11        0.00
  Node_03954           JUNCTION     3.14     5.44   102.02     0  03:11        0.00
  Node_03955           JUNCTION     2.12     4.45   101.94     0  03:11        0.00
  Node_04031           JUNCTION     0.34     0.99   102.22     0  03:11        0.00
  Node_04032           JUNCTION     1.97     3.87   102.22     0  03:11        0.00
  Node_04040           JUNCTION     0.63     1.70   102.25     0  02:23        0.00
  Node_04050           JUNCTION     0.31     1.64   102.60     0  04:49        0.00
  Node_04054           JUNCTION     0.09     0.87   102.01     0  03:12        0.00
  Node_04055           JUNCTION     0.25     1.16   101.97     0  03:12        0.00
  Node_04057           JUNCTION     0.36     1.58   101.89     0  03:12        0.00
  Node_04384           JUNCTION     2.05     4.07   101.65     0  03:12        0.00
  Node_04385           JUNCTION     1.76     3.75   101.67     0  03:12        0.00
  Node_04386           JUNCTION     1.75     3.73   101.67     0  03:12        0.00
  Node_04387           JUNCTION     1.74     3.72   101.68     0  03:12        0.00
  Node_04388           JUNCTION     1.73     3.69   101.70     0  03:12        0.00
  Node_04389           JUNCTION     0.41     1.33   101.70     0  03:12        0.00
  Node_04390           JUNCTION     1.72     3.69   101.71     0  03:12        0.00
  Node_04391           JUNCTION     1.71     3.64   101.70     0  03:12        0.00
  Node_04392           JUNCTION     1.82     3.74   101.70     0  03:12        0.00
  Node_04393           JUNCTION     1.69     3.59   101.70     0  03:12        0.00
  Node_04394           JUNCTION     0.70     2.06   101.71     0  03:12        0.00
  Node_04395           JUNCTION     1.68     3.55   101.71     0  03:12        0.00
  Node_04396           JUNCTION     1.65     3.51   101.71     0  03:12        0.00
  Node_04397           JUNCTION     0.55     1.81   101.71     0  03:12        0.00
  Node_04428           JUNCTION     1.66     3.49   101.71     0  03:13        0.00
  Node_04429           JUNCTION     1.64     3.45   101.70     0  03:12        0.00
  Node_04430           JUNCTION     1.63     3.42   101.70     0  03:13        0.00
  Node_04431           JUNCTION     1.41     3.12   101.69     0  03:13        0.00
  Node_04432           JUNCTION     1.33     3.01   101.69     0  03:13        0.00
  Node_04433           JUNCTION     1.15     2.81   101.69     0  03:13        0.00
  Node_04434           JUNCTION     1.44     3.09   101.68     0  03:13        0.00
  Node_04435           JUNCTION     1.29     2.90   101.68     0  03:13        0.00
  Node_04436           JUNCTION     1.69     3.28   101.68     0  03:13        0.00
  Node_04437           JUNCTION     1.82     3.38   101.67     0  03:15        0.00
  Node_04438           JUNCTION     2.12     3.67   101.68     0  03:15        0.00
  Node_04439           JUNCTION     1.17     2.72   101.70     0  03:15        0.00
  Node_04440           JUNCTION     1.16     2.69   101.70     0  03:15        0.00
  Node_04441           JUNCTION     0.90     2.37   101.70     0  03:15        0.00
  Node_04442           JUNCTION     1.23     2.74   101.71     0  03:15        0.00
  Node_04443           JUNCTION     1.09     2.58   101.72     0  03:15        0.00
  Node_04444           JUNCTION     1.08     2.56   101.73     0  03:15        0.00
  Node_04445           JUNCTION     1.01     2.48   101.75     0  03:15        0.00
  Node_04446           JUNCTION     0.98     2.43   101.76     0  03:15        0.00
  Node_04447           JUNCTION     0.91     2.34   101.78     0  03:15        0.00
  Node_04448           JUNCTION     0.93     2.35   101.80     0  03:15        0.00
  Node_04449           JUNCTION     0.94     2.36   101.82     0  03:15        0.00
  Node_04450           JUNCTION     1.09     2.52   101.84     0  02:56        0.00
  Node_04451           JUNCTION     0.90     2.34   101.88     0  02:56        0.00
  Node_04452           JUNCTION     0.66     2.06   101.88     0  02:56        0.00
  Node_04453           JUNCTION     0.46     1.66   101.88     0  02:56        0.00
  Node_04461           JUNCTION     0.85     2.27   101.89     0  02:56        0.00
  Node_04462           JUNCTION     0.84     2.25   101.90     0  02:56        0.00
  Node_04562           JUNCTION     0.78     2.46   102.05     0  02:56        0.00
  Node_04563           JUNCTION     1.12     2.92   102.04     0  02:56        0.00
  Node_04564           JUNCTION     0.92     2.67   102.05     0  02:57        0.00
  Node_04565           JUNCTION     0.93     2.68   102.04     0  02:57        0.00
  Node_04566           JUNCTION     1.07     2.84   102.03     0  02:57        0.00
  Node_04567           JUNCTION     1.03     2.80   102.01     0  02:56        0.00
  Node_04568           JUNCTION     1.04     2.81   101.99     0  02:56        0.00
  Node_04569           JUNCTION     1.19     3.00   101.97     0  02:57        0.00
  Node_04570           JUNCTION     0.72     2.24   101.97     0  02:56        0.00
  Node_04571           JUNCTION     1.20     2.99   101.92     0  02:56        0.00
  Node_04572           JUNCTION     2.59     4.40   101.93     0  03:01        0.00
  Node_04573           JUNCTION     2.26     4.08   101.92     0  03:01        0.00
  Node_04574           JUNCTION     2.49     3.60   101.90     0  03:13        0.00
  Node_04575           JUNCTION     2.75     4.58   101.90     0  03:13        0.00
  Node_04576           JUNCTION     1.37     3.21   101.86     0  03:12        0.00
  Node_04577           JUNCTION     1.40     3.26   101.84     0  03:13        0.00
  Node_04578           JUNCTION     1.45     3.30   101.80     0  03:13        0.00
  Node_04579           JUNCTION     1.52     3.35   101.76     0  03:12        0.00
  Node_04580           JUNCTION     0.66     1.98   101.76     0  02:56        0.00
  Node_04623           JUNCTION     0.64     2.01   101.67     0  03:12        0.00
  Node_04624           JUNCTION     0.81     2.24   101.70     0  03:12        0.00
  Node_04643           JUNCTION     0.61     1.92   101.82     0  03:15        0.00
  Node_04644           JUNCTION     0.62     1.89   101.73     0  03:15        0.00
  Node_04645           JUNCTION     0.83     2.05   101.65     0  02:55        0.00
  Node_04678           JUNCTION     0.65     1.98   101.71     0  03:12        0.00
  Node_04679           JUNCTION     0.40     1.49   101.67     0  03:12        0.00
  Node_04680           JUNCTION     1.84     3.86   101.63     0  03:12        0.00
  Node_04681           JUNCTION     1.83     3.90   101.62     0  03:12        0.00
  Node_04682           JUNCTION     0.19     0.91   101.92     0  03:12        0.00
  Node_04710           JUNCTION     0.61     1.88   101.87     0  05:48        0.00
  Node_04711           JUNCTION     0.65     2.61   102.60     0  05:16        0.00
  Node_04712           JUNCTION     0.65     2.61   102.62     0  02:58        0.00
  Node_04713           JUNCTION     0.61     2.58   102.63     0  02:58        0.00
  Node_04714           JUNCTION     0.64     2.60   102.65     0  05:00        0.00
  Node_04715           JUNCTION     0.60     2.52   102.61     0  04:53        0.00
  Node_04716           JUNCTION     0.61     2.46   102.59     0  04:55        0.00
  Node_04717           JUNCTION     0.39     1.55   101.85     0  02:58        0.00
  Node_04721           JUNCTION     0.47     1.57   101.92     0  03:09        0.00
  Node_04759           JUNCTION     0.52     1.69   101.87     0  03:13        0.00
  Node_04760           JUNCTION     0.67     2.05   101.51     0  03:12        0.00
  Node_04764           JUNCTION     0.62     1.59   101.51     0  02:55        0.00
  Node_04765           JUNCTION     0.42     1.47   101.89     0  02:56        0.00
  Node_04766           JUNCTION     0.74     2.21   101.98     0  02:56        0.00
  Node_04767           JUNCTION     0.71     2.22   102.05     0  02:57        0.00
  Node_04768           JUNCTION     0.79     2.34   102.00     0  02:56        0.00
  Node_04854           JUNCTION     0.32     1.27   101.70     0  03:12        0.00
  Node_04855           JUNCTION     0.89     1.97   101.90     0  03:01        0.00
  Node_05283           JUNCTION     1.84     3.61   102.22     0  03:11        0.00
  Node_05284           JUNCTION     1.81     3.57   102.23     0  03:09        0.00
  Node_05285           JUNCTION     1.76     3.47   102.22     0  02:23        0.00
  Node_05286           JUNCTION     1.73     3.42   102.22     0  02:23        0.00
  Node_05287           JUNCTION     1.70     3.42   102.27     0  02:24        0.00
  Node_05288           JUNCTION     1.68     3.41   102.28     0  02:23        0.00
  Node_05289           JUNCTION     1.20     2.70   102.22     0  02:23        0.00
  Node_05290           JUNCTION     1.68     3.40   102.29     0  02:23        0.00
  Node_05291           JUNCTION     1.47     3.19   102.39     0  02:24        0.00
  Node_05292           JUNCTION     1.43     3.16   102.40     0  02:24        0.00
  Node_05293           JUNCTION     1.42     3.15   102.41     0  02:24        0.00
  Node_05294           JUNCTION     1.39     3.12   102.43     0  02:24        0.00
  Node_05295           JUNCTION     1.43     3.15   102.42     0  02:24        0.00
  Node_05296           JUNCTION     1.40     3.12   102.43     0  02:24        0.00
  Node_05297           JUNCTION     1.22     2.78   102.29     0  02:23        0.00
  Node_05298           JUNCTION     1.35     3.04   102.44     0  02:24        0.00
  Node_05299           JUNCTION     1.34     3.04   102.44     0  02:24        0.00
  Node_05300           JUNCTION     1.31     2.97   102.42     0  02:24        0.00
  Node_05301           JUNCTION     1.27     2.93   102.42     0  02:24        0.00
  Node_05302           JUNCTION     1.28     2.90   102.41     0  02:24        0.00
  Node_05303           JUNCTION     1.24     2.87   102.41     0  02:24        0.00
[...]
  Link_02139                  0.01      0.01      0.01      1.00         0.01
  Link_02383                  2.83      2.83      3.37      0.01         0.01
  Link_02384                  3.37      3.37      3.38      0.01         0.01
  Link_02385                  3.38      3.38      3.38      0.01         0.17
  Link_02386                  2.38      2.38      2.42      0.01         0.01
  Link_02387                  3.38      3.38      3.42      0.01         0.01
  Link_02388                  3.43      3.43      3.44      0.01         0.01
  Link_02389                  2.54      2.54      3.37      0.01         0.01
  Link_02390                  3.44      3.44      3.47      0.01         0.01
  Link_02391                  3.47      3.47      3.57      0.01         0.01
  Link_02392                  2.54      2.54      2.75      0.01         0.01
  Link_02393                  3.57      3.57      3.58      0.01         0.01
  Link_05459                  2.99      2.99      3.02      0.04         0.01
  Link_05460                  3.06      3.06      3.07      0.01         0.01
  Link_05461                  3.15      3.15      3.16      0.01         0.04
  Link_05462                  3.22      3.22      3.24      0.66         0.59
  Link_05463                  3.26      3.26      3.26      1.02         0.85
  Link_05464                  3.30      3.30      3.30      0.01         1.11
  Link_05496                  3.86      3.95      3.86      2.35         2.01
  Link_05662                  1.80      1.80      1.82      0.01         0.01
  Link_05663                  2.46      2.46      2.73      0.01         0.01
  Link_05664                  4.21      4.21      4.22      0.01         0.01
  Link_05665                  4.23      4.31      4.23      4.10         3.63
  Link_05677                  4.22      4.22      4.22      2.77         2.44
  Link_05678                  2.11      2.11      2.13      0.01         0.01
  Link_05720                  3.64      3.64      3.64      1.05         0.56
  Link_05721                  3.66      3.66      3.66      0.80         0.45
  Link_05722                  2.45      2.45      2.56      0.01         0.01
  Link_05726                  3.56      3.56      3.59      0.01         0.01
  Link_05727                  3.56      3.56      3.57      0.01         0.04
  Link_05728                  3.36      3.36      3.38      0.01         0.01
  Link_05729                  2.64      2.64      2.65      0.20         0.71
  Link_05742                  2.42      2.42      2.47      0.01         0.01
  Link_05743                  3.58      3.58      3.60      0.01         0.01
  Link_05744                  3.92      3.92      4.28      0.01         0.01
  Link_05752                  2.27      2.27      2.29      0.71         0.02
  Link_05812                  4.01      4.01      4.07      0.01         0.01
  Link_05813                  3.54      3.54      3.67      0.01         0.01
  Link_05814                  3.08      3.08      3.17      0.01         0.01
  Link_05815                  2.91      2.91      2.97      0.01         0.01
  Link_05983                  2.05      2.05      2.11      0.01         0.01
  Link_05984                  1.71      1.71      1.82      0.01         0.01
  Link_07220                  2.02      2.02      2.18      0.01         0.02
  Link_07221                  2.18      2.18      2.19      0.16         0.62
  Link_07222                  2.19      2.19      2.25      0.24         0.26
  Link_07230                  2.25      2.25      2.35      0.15         0.17
  Link_07231                  2.35      2.35      2.35      0.63         0.52
  Link_07233                  2.53      2.66      2.53      1.84         1.56
  Link_07234                  2.59      2.61      2.59      3.53         2.28
  Link_07235                  2.68      2.68      2.70      0.09         0.20
  Link_07270                  0.39      0.39      1.00      0.01         0.01
  Link_07271                  1.00      1.00      1.54      0.01         0.03
  Link_07274                  0.54      0.54      0.56      0.01         0.01
  Link_07277                  1.68      1.68      1.87      0.01         0.04
  Link_07278                  1.88      1.90      1.91      0.03         0.05
  Link_07295                  1.90      1.91      1.96      0.03         0.04
  Link_07296                  1.96      1.96      1.99      0.14         0.10
  Link_07297                  1.99      1.99      2.02      0.20         0.19
  Link_07303                  1.95      1.95      1.95      0.01         0.04
  Link_07306                  1.47      1.47      1.87      0.01         0.01
  Link_07464                  3.36      3.36      3.40      0.01         0.01
  Link_07578                  2.33      2.33      2.34      0.01         0.01
  Link_07579                  2.48      2.48      2.60      0.01         0.01
  Link_07580                  2.43      2.43      2.48      0.01         0.01
  Link_07687                  3.96      3.96      3.97      0.01         0.01
  Link_08891                  1.91      1.91      2.38      0.01         0.01
  Link_08912                  1.90      1.90      2.58      0.01         0.01
  Link1_to_ChengXi            3.39      3.39      3.42      0.01         0.01
  Link2_to_ChengXi            3.34      4.54      3.34      3.90         2.56
  Link3_to_ChengXi            2.18      2.64      2.20      0.84         0.33
  
  
  ***************
  Pumping Summary
  ***************
  
  ---------------------------------------------------------------------------------------------------------
                                                  Min       Avg       Max     Total     Power    % Time Off
                        Percent   Number of      Flow      Flow      Flow    Volume     Usage    Pump Curve
  Pump                 Utilized   Start-Ups       CMS       CMS       CMS  10^6 ltr     Kw-hr    Low   High
  ---------------------------------------------------------------------------------------------------------
  Pump_ChengXi1           81.11         145      0.00      0.17      0.17     2.926     24.02    0.0    0.0
  Pump_ChengXi2           41.02         146      0.00      0.17      0.17     1.479     13.08    0.0    0.0
  Pump_ChengXi3           27.38          94      0.00      0.17      0.17     0.988      9.24    0.0    0.0
  Pump_ChengXi4            7.15          56      0.00      0.17      0.17     0.258      2.42    0.0    0.0
  Pump_LaoDongLu1         84.72           9      0.00      0.03      0.03     0.487      8.46    0.0    0.0
  Pump_LaoDongLu2         54.17          16      0.00      0.03      0.03     0.304      5.35    0.0    0.0
  Pump_LaoDongLu3         19.44          10      0.00      0.03      0.03     0.107      1.88    0.0    0.0
  outfallpump             91.81          34      0.00      0.28      0.45     5.481     94.45    0.0    0.0
  
  
  ***************************
  Link Pollutant Load Summary
  ***************************
  
  ----------------------------------
                                 COD
  Link                            kg
  ----------------------------------
  Link_01146                  24.386
  Link_01147                  30.179
  Link_01148                  35.905
  Link_01149                  41.546
  Link_01150                  47.269
  Link_01151                  49.706
  Link_01152                  37.605
  Link_01274                   8.079
  Link_01275                  15.025
  Link_01276                  34.660
  Link_01292                  11.898
  Link_01294                  47.387
  Link_01295                  53.752
  Link_01296                  60.083
  Link_01297                  79.903
  Link_01298                   8.349
  Link_01299                  94.806
  Link_01300                 101.197
  Link_01301                 107.561
  Link_01302                   8.075
  Link_01312                  11.990
  Link_01313                 259.596
  Link_01314                 265.969
  Link_01315                 272.296
  Link_01316                 278.696
  Link_01317                 285.149
  Link_01318                 291.769
  Link_01319                 298.539
  Link_01320                 335.998
  Link_01323                 206.409
  Link_01324                   9.800
  Link_01325                 221.892
  Link_01326                 227.499
  Link_01327                 193.999
  Link_01328                   9.637
  Link_01329                 207.319
  Link_01330                 212.709
  Link_01331                 218.237
  Link_01332                 166.603
  Link_01333                   9.689
  Link_01334                 181.259
  Link_01335                  11.980
  Link_01336                 197.365
  Link_01337                 141.714
  Link_01338                  10.062
  Link_01339                 128.632
  Link_01340                   9.596
  Link_01341                 126.413
  Link_01342                   9.649
  Link_01343                 132.384
  Link_01344                  18.863
  Link_01345                 137.816
  Link_01346                 141.958
  Link_01347                  11.731
  Link_01348                 145.300
  Link_01349                  18.802
  Link_01350                 148.731
  Link_01351                  10.481
  Link_01352                 153.765
  Link_01556                  10.207
  Link_01557                  17.971
  Link_01558                1298.687
  Link_01559                  32.180
  Link_01560                1292.428
  Link_01561                1335.544
  Link_01562                1344.059
  Link_01563                1350.925
  Link_01564                   7.044
  Link_01565                 131.628
  Link_01566                   9.504
  Link_01567                  10.423
  Link_01568                 137.170
  Link_01569                  12.575
  Link_01570                 143.367
  Link_01571                 136.925
  Link_01572                 133.681
  Link_01573                  93.689
  Link_01574                  85.868
  Link_01575                  10.782
  Link_01576                  67.825
  Link_01577                  49.400
  Link_01578                  42.478
  Link_01579                  10.334
  Link_01580                   5.460
  Link_01581                   7.404
  Link_01582                   5.452
  Link_01731                  18.790
  Link_01732                  29.010
  Link_01733                  38.553
  Link_01734                  10.408
  Link_01735                  14.848
  Link_01751                  78.331
  Link_01752                  84.424
  Link_01753                  99.223
  Link_01754                 105.677
  Link_01755                 113.103
  Link_01756                   8.112
  Link_01757                 137.066
  Link_01758                   9.572
  Link_01759                   9.648
  Link_01760                 152.052
  Link_01761                 156.096
  Link_01762                 160.248
  Link_01763                   9.495
  Link_01764                 170.478
  Link_01765                 170.834
  Link_01766                 167.318
  Link_01767                 294.437
  Link_01768                 295.722
  Link_01769                 298.018
  Link_01770                 301.367
  Link_01771                 303.396
  Link_01772                  28.551
  Link_01773                 318.705
  Link_01774                  30.984
  Link_01775                 113.823
  Link_01776                 104.839
  Link_01777                  95.459
  Link_01778                 123.559
  Link_01779                  78.954
  Link_01780                 118.617
  Link_01781                  49.933
  Link_01782                 346.890
  Link_01783                   9.784
  Link_01784                 353.406
  Link_01785                 357.926
  Link_01786                  59.094
  Link_01787                  31.245
  Link_01788                 418.426
  Link_01789                 420.811
  Link_01790                  16.143
  Link_01791                  16.205
  Link_01792                  14.376
  Link_01793                 446.644
  Link_01794                 449.702
  Link_01795                 452.826
  Link_01796                 455.997
  Link_01797                 458.184
  Link_01798                 905.088
  Link_01799                 901.035
  Link_01800                 909.681
  Link_01801                 464.105
  Link_01802                 868.356
  Link_01803                 896.230
  Link_01804                 770.709
  Link_01805                 764.948
  Link_01806                 759.508
  Link_01807                 753.286
  Link_01808                  13.661
  Link_01809                 737.423
  Link_01810                 727.123
  Link_01811                   6.445
  Link_01812                  50.522
  Link_01813                  42.313
  Link_01814                 703.220
  Link_01815                 698.160
  Link_01816                 685.600
  Link_01817                   8.397
  Link_01818                 660.120
  Link_01819                 645.435
  Link_01820                  11.206
  Link_01821                  23.875
  Link_01822                   5.455
  Link_01823                 168.438
  Link_01824                 166.132
  Link_01825                  47.890
  Link_01826                  49.933
  Link_01827                   1.900
  Link_01828                  53.920
  Link_01829                   5.449
  Link_01830                  61.528
  Link_01831                   1.899
  Link_01832                  65.535
  Link_01833                  67.592
  Link_01834                  71.718
  Link_01835                   1.899
  Link_01836                  37.319
  Link_01837                  19.769
  Link_01838                  25.892
  Link_01839                  35.176
  Link_01840                  33.211
  Link_01841                  31.273
  Link_01842                  25.664
  Link_01843                  21.710
  Link_01844                  19.761
  Link_02074                  10.179
  Link_02075                 144.604
  Link_02076                 161.584
  Link_02077                  17.320
  Link_02078                 182.163
  Link_02079                  11.865
  Link_02080                 197.897
  Link_02081                 203.117
  Link_02082                 208.322
  Link_02083                  12.233
  Link_02084                  10.192
  Link_02085                 452.921
  Link_02086                 445.595
  Link_02087                 443.758
  Link_02088                 441.696
  Link_02089                 438.654
  Link_02090                 495.366
  Link_02091                 490.520
  Link_02092                 486.180
  Link_02093                   9.502
  Link_02094                 469.050
  Link_02095                 465.447
  Link_02096                 441.971
  Link_02097                  16.944
  Link_02098                  28.134
  Link_02099                 438.474
  Link_02100                 435.104
  Link_02101                  15.365
  Link_02102                 411.435
  Link_02103                 390.588
  Link_02104                  23.506
  Link_02105                 323.738
  Link_02106                  14.697
  Link_02107                   6.879
  Link_02108                 309.153
  Link_02109                 302.222
  Link_02110                 244.684
  Link_02111                 161.928
  Link_02112                  15.421
  Link_02113                 119.704
  Link_02114                  32.252
  Link_02115                  30.209
  Link_02116                  28.245
  Link_02117                  26.321
  Link_02118                  24.376
  Link_02123                   5.446
  Link_02124                   7.375
  Link_02125                   9.310
  Link_02126                  11.224
  Link_02127                  22.441
  Link_02128                  20.496
  Link_02129                  18.580
  Link_02130                  16.659
  Link_02131                  14.703
  Link_02132                  12.740
  Link_02133                  10.778
  Link_02134                 121.778
  Link_02135                 123.799
  Link_02136                 131.308
  Link_02137                   5.445
  Link_02138                 149.022
  Link_02139                 146.962
  Link_02140                 144.841
  Link_02141                 142.831
  Link_02142                 140.751
  Link_02143                 133.315
  Link_02383                   6.468
  Link_02384                  12.222
  Link_02385                  18.099
  Link_02386                  24.288
  Link_02387                  47.085
  Link_02388                  51.834
  Link_02389                  24.250
  Link_02390                  57.116
  Link_02391                  85.633
  Link_02392                  31.912
  Link_02393                 122.187
  Link_05459                  71.915
  Link_05460                 148.429
  Link_05461                 171.448
  Link_05462                 337.692
  Link_05463                 444.238
  Link_05464                  25.776
  Link_05496                1282.648
  Link_05662                  40.913
  Link_05663                   8.086
  Link_05664                  38.380
  Link_05665                 342.668
  Link_05677                 237.671
  Link_05678                  17.018
  Link_05720                 862.497
  Link_05721                 719.736
  Link_05722                  15.163
  Link_05723                  85.360
  Link_05725                  13.180
  Link_05726                 454.195
  Link_05727                   7.990
  Link_05728                 473.069
  Link_05729                 416.720
  Link_05730                 242.525
  Link_05731                 163.896
  Link_05732                 159.939
  Link_05742                  23.970
  Link_05743                 117.770
  Link_05744                 213.749
  Link_05752                 129.772
  Link_05753                   3.681
  Link_05754                  23.678
  Link_05791                   5.445
  Link_05812                 201.862
  Link_05813                 133.815
  Link_05814                 126.127
  Link_05815                 140.234
  Link_05816                  16.732
  Link_05817                  24.234
  Link_05818                  10.790
  Link_05983                  25.819
  Link_05984                  18.928
  Link_06039                   1.883
  Link_07220                  94.925
  Link_07221                 102.001
  Link_07222                 122.402
  Link_07230                 128.713
  Link_07231                 134.895
  Link_07233                 268.352
  Link_07234                 274.718
  Link_07235                 129.902
  Link_07270                  29.879
  Link_07271                  39.799
  Link_07274                  17.192
  Link_07277                  46.655
  Link_07278                  54.332
  Link_07295                  57.367
  Link_07296                  64.768
  Link_07297                  88.155
  Link_07303                  10.507
  Link_07306                  15.082
  Link_07321                  10.776
  Link_07464                  20.381
  Link_07578                  24.625
  Link_07579                 383.953
  Link_07580                 352.200
  Link_07687                  18.442
  Link_07865                  10.769
  Link_08891                  11.744
  Link_08912                  32.685
  Link1_to_ChengXi          1359.080
  Link2_to_ChengXi           350.794
  Link3_to_ChengXi           280.654
  Link_to_LaoDongLu          246.747
  Pump_ChengXi1              993.078
  Pump_ChengXi2              506.335
  Pump_ChengXi3              343.697
  Pump_ChengXi4              101.044
  Pump_LaoDongLu1            163.026
  Pump_LaoDongLu2             91.516
  Pump_LaoDongLu3             40.249
  outfallpump               1592.332
  

  Analysis begun on:  Sat Sep  4 15:16:37 2021
  Analysis ended on:  Sat Sep  4 15:16:38 2021
  Total elapsed time: 00:00:01