
  EPA STORM WATER MANAGEMENT MODEL - VERSION 5.1 (Build 5.3.0.dev0)
  --------------------------------------------------------------

  WARNING 04: minimum elevation drop used for Conduit Link_01776
  WARNING 04: minimum elevation drop used for Conduit Link_01779
  WARNING 04: minimum elevation drop used for Conduit Link_07234
  WARNING 02: maximum depth increased for Node Node_06087
  
  *********************************************************
  NOTE: The summary statistics displayed in this report are
  based on results found at every computational time step,  
  not just on results from each reporting time step.
  *********************************************************
  
  ****************
  Analysis Options
  ****************
  Flow Units ............... CMS
  Process Models:
    Rainfall/Runoff ........ YES
    RDII ................... NO
    Snowmelt ............... NO
    Groundwater ............ NO
    Flow Routing ........... YES
    Ponding Allowed ........ YES
    Water Quality .......... YES
  Infiltration Method ...... HORTON
  Flow Routing Method ...... DYNWAVE
  Surcharge Method ......... EXTRAN
  Starting Date ............ 01/02/2011 00:00:00
  Ending Date .............. 01/02/2011 06:00:00
  Antecedent Dry Days ...... 0.0
  Report Time Step ......... 00:15:00
  Wet Time Step ............ 00:05:00
  Dry Time Step ............ 01:00:00
  Routing Time Step ........ 60.00 sec
  Variable Time Step ....... YES
  Maximum Trials ........... 8
  Number of Threads ........ 4
  Head Tolerance ........... 0.001500 m
  
  
  **************************        Volume         Depth
  Runoff Quantity Continuity     hectare-m            mm
  **************************     ---------       -------
  Total Precipitation ......         1.144        40.000
  Evaporation Loss .........         0.000         0.000
  Infiltration Loss ........         0.051         1.781
  Surface Runoff ...........         1.102        38.540
  Final Storage ............         0.000         0.009
  Continuity Error (%) .....        -0.826
  
  
  **************************           COD
  Runoff Quality Continuity             kg
  **************************    ----------
  Initial Buildup ..........         0.000
  Surface Buildup ..........         0.000
  Wet Deposition ...........      3008.738
  Sweeping Removal .........         0.000
  Infiltration Loss ........       133.992
  BMP Removal ..............         0.000
  Surface Runoff ...........      2898.894
  Remaining Buildup ........         0.706
  Continuity Error (%) .....        -0.826
  
  
  **************************        Volume        Volume
  Flow Routing Continuity        hectare-m      10^6 ltr
  **************************     ---------     ---------
  Dry Weather Inflow .......         0.153         1.529
  Wet Weather Inflow .......         1.102        11.022
  Groundwater Inflow .......         0.000         0.000
  RDII Inflow ..............         0.000         0.000
  External Inflow ..........         0.000         0.000
  External Outflow .........         0.660         6.602
  Flooding Loss ............         0.565         5.651
  Evaporation Loss .........         0.000         0.000
  Exfiltration Loss ........         0.000         0.000
  Initial Stored Volume ....         0.077         0.773
  Final Stored Volume ......         0.225         2.251
  Continuity Error (%) .....        -8.856
  
  
  **************************           COD
  Quality Routing Continuity            kg
  **************************    ----------
  Dry Weather Inflow .......       845.606
  Wet Weather Inflow .......      2898.884
  Groundwater Inflow .......         0.000
  RDII Inflow ..............         0.000
  External Inflow ..........         0.000
  External Outflow .........      2069.990
  Flooding Loss ............      1535.861
  Exfiltration Loss ........         0.000
  Mass Reacted .............         0.000
  Initial Stored Mass ......       427.257
  Final Stored Mass ........       561.515
  Continuity Error (%) .....         0.105
  
  
  *************************
  Highest Continuity Errors
  *************************
  Node Node_07272 (-64.11%)
  Node Node_04713 (-61.49%)
  Node Node_04715 (-35.71%)
  Node Node_04714 (-21.20%)
  Node Node_04712 (14.86%)
  
  
  ***************************
  Time-Step Critical Elements
  ***************************
  Link Link_02129 (60.32%)
  Link Link_01778 (29.38%)
  Link Link_07277 (2.64%)
  Link Link_07221 (1.81%)
  Link Link_02077 (1.44%)
  
  
  ********************************
  Highest Flow Instability Indexes
  ********************************
  Link Link_01558 (93)
  Link Link_01561 (80)
  Link Link_01336 (78)
  Link Link_01324 (78)
  Link Link_01335 (74)
  
  
  *************************
  Routing Time Step Summary
  *************************
  Minimum Time Step           :     5.00 sec
  Average Time Step           :     5.00 sec
  Maximum Time Step           :     5.00 sec
  Percent in Steady State     :     0.00
  Average Iterations per Step :     6.98
  Percent Not Converging      :    72.82
  
  
  ***************************
  Subcatchment Runoff Summary
  ***************************
  
  ------------------------------------------------------------------------------------------------------------------------------
                            Total      Total      Total      Total     Imperv       Perv      Total       Total     Peak  Runoff
                           Precip      Runon       Evap      Infil     Runoff     Runoff     Runoff      Runoff   Runoff   Coeff
  Subcatchment                 mm         mm         mm         mm         mm         mm         mm    10^6 ltr      CMS
  ------------------------------------------------------------------------------------------------------------------------------
  2707                      40.00       0.00       0.00       1.79      10.00      28.54      38.54        0.04     0.01   0.964
  2708                      40.00       0.00       0.00       1.79      10.00      28.54      38.54        0.04     0.01   0.964
  2709                      40.00       0.00       0.00       1.79      10.00      28.54      38.54        0.04     0.01   0.964
  2710                      40.00       0.00       0.00       1.79      10.00      28.54      38.54        0.04     0.01   0.964
  2712                      40.00       0.00       0.00       1.79      10.00      28.54      38.54        0.04     0.01   0.964
  2713                      40.00       0.00       0.00       1.79      10.00      28.54      38.54        0.04     0.01   0.964
  2714                      40.00       0.00       0.00       1.79      10.00      28.54      38.54        0.04     0.01   0.964
  2715                      40.00       0.00       0.00       1.79      10.00      28.54      38.54        0.04     0.01   0.964
  2716                      40.00       0.00       0.00       1.79      10.00      28.54      38.54        0.04     0.01   0.964
  2717                      40.00       0.00       0.00       1.79      10.00      28.54      38.54        0.04     0.01   0.964
  2718                      40.00       0.00       0.00       1.79      10.00      28.54      38.54        0.04     0.01   0.964
  2719                      40.00       0.00       0.00       1.79      10.00      28.54      38.54        0.04     0.01   0.964
  2721                      40.00       0.00       0.00       1.79      10.00      28.54      38.54        0.04     0.01   0.964
  2722                      40.00       0.00       0.00       1.79      10.00      28.54      38.54        0.04     0.01   0.964
  2723                      40.00       0.00       0.00       1.79      10.00      28.54      38.54        0.04     0.01   0.964
  2724                      40.00       0.00       0.00       1.79      10.00      28.54      38.54        0.04     0.01   0.964
  2725                      40.00       0.00       0.00       1.79      10.00      28.54      38.54        0.04     0.01   0.964
  2726                      40.00       0.00       0.00       1.79      10.00      28.54      38.54        0.04     0.01   0.964
  2727                      40.00       0.00       0.00       1.79      10.00      28.54      38.54        0.04     0.01   0.964
  2728                      40.00       0.00       0.00       1.79      10.00      28.54      38.54        0.04     0.01   0.964
  2729                      40.00       0.00       0.00       1.79      10.00      28.54      38.54        0.04     0.01   0.964
  2730                      40.00       0.00       0.00       1.79      10.00      28.54      38.54        0.04     0.01   0.964
  2731                      40.00       0.00       0.00       1.79      10.00      28.54      38.54        0.04     0.01   0.964
  2732                      40.00       0.00       0.00       1.79      10.00      28.54      38.54        0.04     0.01   0.964
  2733                      40.00       0.00       0.00       1.79      10.00      28.54      38.54        0.04     0.01   0.964
  2734                      40.00       0.00       0.00       1.79      10.00      28.54      38.54        0.04     0.01   0.964
  2735                      40.00       0.00       0.00       1.79      10.00      28.54      38.54        0.04     0.01   0.964
  2736                      40.00       0.00       0.00       1.79      10.00      28.54      38.54        0.04     0.01   0.964
  2737                      40.00       0.00       0.00       1.79      10.00      28.54      38.54        0.04     0.01   0.964
  2738                      40.00       0.00       0.00       1.79      10.00      28.54      38.54        0.04     0.01   0.964
  2739                      40.00       0.00       0.00       1.79      10.00      28.54      38.54        0.04     0.01   0.964
  2740                      40.00       0.00       0.00       1.79      10.00      28.54      38.54        0.04     0.01   0.964
  2741                      40.00       0.00       0.00       1.79      10.00      28.54      38.54        0.04     0.01   0.964
  2742                      40.00       0.00       0.00       1.79      10.00      28.54      38.54        0.04     0.01   0.964
  2743                      40.00       0.00       0.00       1.79      10.00      28.54      38.54        0.04     0.01   0.964
  2744                      40.00       0.00       0.00       1.79      10.00      28.54      38.54        0.04     0.01   0.964
  2745                      40.00       0.00       0.00       1.79      10.00      28.54      38.54        0.04     0.01   0.964
  2746                      40.00       0.00       0.00       1.79      10.00      28.54      38.54        0.04     0.01   0.964
  2747                      40.00       0.00       0.00       1.79      10.00      28.54      38.54        0.04     0.01   0.964
  2748                      40.00       0.00       0.00       1.79      10.00      28.54      38.54        0.04     0.01   0.964
  2749                      40.00       0.00       0.00       1.79      10.00      28.54      38.54        0.04     0.01   0.964
  2750                      40.00       0.00       0.00       1.79      10.00      28.54      38.54        0.04     0.01   0.964
  2751                      40.00       0.00       0.00       1.79      10.00      28.54      38.54        0.04     0.01   0.964
  2752                      40.00       0.00       0.00       1.79      10.00      28.54      38.54        0.04     0.01   0.964
  2753                      40.00       0.00       0.00       1.79      10.00      28.54      38.54        0.04     0.01   0.964
  2754                      40.00       0.00       0.00       1.79      10.00      28.54      38.54        0.04     0.01   0.964
  2755                      40.00       0.00       0.00       1.79      10.00      28.54      38.54        0.04     0.01   0.964
  2756                      40.00       0.00       0.00       1.79      10.00      28.54      38.54        0.04     0.01   0.964
  2964                      40.00       0.00       0.00       1.79      10.00      28.54      38.54        0.04     0.01   0.964
  2969                      40.00       0.00       0.00       1.79      10.00      28.54      38.54        0.04     0.01   0.964
  2970                      40.00       0.00       0.00       1.79      10.00      28.54      38.54        0.04     0.01   0.964
  2974                      40.00       0.00       0.00       1.79      10.00      28.54      38.54        0.04     0.01   0.964
  2975                      40.00       0.00       0.00       1.79      10.00      28.54      38.54        0.04     0.01   0.964
  2976                      40.00       0.00       0.00       1.79      10.00      28.54      38.54        0.04     0.01   0.964
  2977                      40.00       0.00       0.00       1.79      10.00      28.54      38.54        0.04     0.01   0.964
  2978                      40.00       0.00       0.00       1.79      10.00      28.54      38.54        0.04     0.01   0.964
  2979                      40.00       0.00       0.00       1.79      10.00      28.54      38.54        0.04     0.01   0.964
  2980                      40.00       0.00       0.00       1.79      10.00      28.54      38.54        0.04     0.01   0.964
  2981                      40.00       0.00       0.00       1.79      10.00      28.54      38.54        0.04     0.01   0.964
  2982                      40.00       0.00       0.00       1.79      10.00      28.54      38.54        0.04     0.01   0.964
  2984                      40.00       0.00       0.00       1.79      10.00      28.54      38.54        0.04     0.01   0.964
  2985                      40.00       0.00       0.00       1.79      10.00      28.54      38.54        0.04     0.01   0.964
  3925                      40.00       0.00       0.00       1.79      10.00      28.54      38.54        0.04     0.01   0.964
  3926                      40.00       0.00       0.00       1.79      10.00      28.54      38.54        0.04     0.01   0.964
  3927                      40.00       0.00       0.00       1.79      10.00      28.54      38.54        0.04     0.01   0.964
  3928                      40.00       0.00       0.00       1.79      10.00      28.54      38.54        0.04     0.01   0.964
  3929                      40.00       0.00       0.00       1.79      10.00      28.54      38.54        0.04     0.01   0.964
  3930                      40.00       0.00       0.00       1.79      10.00      28.54      38.54        0.04     0.01   0.964
  3931                      40.00       0.00       0.00       1.79      10.00      28.54      38.54        0.04     0.01   0.964
  3932                      40.00       0.00       0.00       1.79      10.00      28.54      38.54        0.04     0.01   0.964
  3933                      40.00       0.00       0.00       1.79      10.00      28.54      38.54        0.04     0.01   0.964
  3934                      40.00       0.00       0.00       1.79      10.00      28.54      38.54        0.04     0.01   0.964
  3935                      40.00       0.00       0.00       1.79      10.00      28.54      38.54        0.04     0.01   0.964
  3936                      40.00       0.00       0.00       1.79      10.00      28.54      38.54        0.04     0.01   0.964
  3937                      40.00       0.00       0.00       1.79      10.00      28.54      38.54        0.04     0.01   0.964
  3938                      40.00       0.00       0.00       1.79      10.00      28.54      38.54        0.04     0.01   0.964
  3939                      40.00       0.00       0.00       1.79      10.00      28.54      38.54        0.04     0.01   0.964
  3940                      40.00       0.00       0.00       1.79      10.00      28.54      38.54        0.04     0.01   0.964
  3941                      40.00       0.00       0.00       1.79      10.00      28.54      38.54        0.04     0.01   0.964
  3942                      40.00       0.00       0.00       1.79      10.00      28.54      38.54        0.04     0.01   0.964
  3943                      40.00       0.00       0.00       1.79      10.00      28.54      38.54        0.04     0.01   0.964
  3944                      40.00       0.00       0.00       1.79      10.00      28.54      38.54        0.04     0.01   0.964
  3945                      40.00       0.00       0.00       1.79      10.00      28.54      38.54        0.04     0.01   0.964
  3946                      40.00       0.00       0.00       1.79      10.00      28.54      38.54        0.04     0.01   0.964
  3947                      40.00       0.00       0.00       1.79      10.00      28.54      38.54        0.04     0.01   0.964
  3948                      40.00       0.00       0.00       1.79      10.00      28.54      38.54        0.04     0.01   0.964
  3949                      40.00       0.00       0.00       1.79      10.00      28.54      38.54        0.04     0.01   0.964
  3950                      40.00       0.00       0.00       1.79      10.00      28.54      38.54        0.04     0.01   0.964
  3951                      40.00       0.00       0.00       1.79      10.00      28.54      38.54        0.04     0.01   0.964
  3952                      40.00       0.00       0.00       1.79      10.00      28.54      38.54        0.04     0.01   0.964
  3953                      40.00       0.00       0.00       1.79      10.00      28.54      38.54        0.04     0.01   0.964
  3954                      40.00       0.00       0.00       1.79      10.00      28.54      38.54        0.04     0.01   0.964
  3955                      40.00       0.00       0.00       1.79      10.00      28.54      38.54        0.04     0.01   0.964
  3956                      40.00       0.00       0.00       1.79      10.00      28.54      38.54        0.04     0.01   0.964
  4032                      40.00       0.00       0.00       1.79      10.00      28.54      38.54        0.04     0.01   0.964
  4033                      40.00       0.00       0.00       1.79      10.00      28.54      38.54        0.04     0.01   0.964
  4041                      40.00       0.00       0.00       1.79      10.00      28.54      38.54        0.04     0.01   0.964
  4051                      40.00       0.00       0.00       1.79      10.00      28.54      38.54        0.04     0.01   0.964
  4055                      40.00       0.00       0.00       1.79      10.00      28.54      38.54        0.04     0.01   0.964
  4056                      40.00       0.00       0.00       1.79      10.00      28.54      38.54        0.04     0.01   0.964
  4058                      40.00       0.00       0.00       1.79      10.00      28.54      38.54        0.04     0.01   0.964
  4385                      40.00       0.00       0.00       1.79      10.00      28.54      38.54        0.04     0.01   0.964
  4386                      40.00       0.00       0.00       1.79      10.00      28.54      38.54        0.04     0.01   0.964
  4387                      40.00       0.00       0.00       1.79      10.00      28.54      38.54        0.04     0.01   0.964
  4388                      40.00       0.00       0.00       1.79      10.00      28.54      38.54        0.04     0.01   0.964
  4389                      40.00       0.00       0.00       1.79      10.00      28.54      38.54        0.04     0.01   0.964
  4390                      40.00       0.00       0.00       1.79      10.00      28.54      38.54        0.04     0.01   0.964
  4391                      40.00       0.00       0.00       1.79      10.00      28.54      38.54        0.04     0.01   0.964
  4392                      40.00       0.00       0.00       1.79      10.00      28.54      38.54        0.04     0.01   0.964
  4393                      40.00       0.00       0.00       1.79      10.00      28.54      38.54        0.04     0.01   0.964
  4394                      40.00       0.00       0.00       1.79      10.00      28.54      38.54        0.04     0.01   0.964
  4395                      40.00       0.00       0.00       1.79      10.00      28.54      38.54        0.04     0.01   0.964
  4396                      40.00       0.00       0.00       1.79      10.00      28.54      38.54        0.04     0.01   0.964
  4397                      40.00       0.00       0.00       1.79      10.00      28.54      38.54        0.04     0.01   0.964
  4398                      40.00       0.00       0.00       1.79      10.00      28.54      38.54        0.04     0.01   0.964
  4429                      40.00       0.00       0.00       1.79      10.00      28.54      38.54        0.04     0.01   0.964
  4430                      40.00       0.00       0.00       1.79      10.00      28.54      38.54        0.04     0.01   0.964
  4431                      40.00       0.00       0.00       1.79      10.00      28.54      38.54        0.04     0.01   0.964
  4432                      40.00       0.00       0.00       1.79      10.00      28.54      38.54        0.04     0.01   0.964
  4433                      40.00       0.00       0.00       1.79      10.00      28.54      38.54        0.04     0.01   0.964
  4434                      40.00       0.00       0.00       1.79      10.00      28.54      38.54        0.04     0.01   0.964
  4435                      40.00       0.00       0.00       1.79      10.00      28.54      38.54        0.04     0.01   0.964
  4436                      40.00       0.00       0.00       1.79      10.00      28.54      38.54        0.04     0.01   0.964
  4437                      40.00       0.00       0.00       1.79      10.00      28.54      38.54        0.04     0.01   0.964
  4438                      40.00       0.00       0.00       1.79      10.00      28.54      38.54        0.04     0.01   0.964
  4439                      40.00       0.00       0.00       1.79      10.00      28.54      38.54        0.04     0.01   0.964
  4440                      40.00       0.00       0.00       1.79      10.00      28.54      38.54        0.04     0.01   0.964
  4441                      40.00       0.00       0.00       1.79      10.00      28.54      38.54        0.04     0.01   0.964
  4442                      40.00       0.00       0.00       1.79      10.00      28.54      38.54        0.04     0.01   0.964
  4443                      40.00       0.00       0.00       1.79      10.00      28.54      38.54        0.04     0.01   0.964
  4444                      40.00       0.00       0.00       1.79      10.00      28.54      38.54        0.04     0.01   0.964
  4445                      40.00       0.00       0.00       1.79      10.00      28.54      38.54        0.04     0.01   0.964
  4446                      40.00       0.00       0.00       1.79      10.00      28.54      38.54        0.04     0.01   0.964
  4447                      40.00       0.00       0.00       1.79      10.00      28.54      38.54        0.04     0.01   0.964
  4448                      40.00       0.00       0.00       1.79      10.00      28.54      38.54        0.04     0.01   0.964
  4449                      40.00       0.00       0.00       1.79      10.00      28.54      38.54        0.04     0.01   0.964
  4450                      40.00       0.00       0.00       1.79      10.00      28.54      38.54        0.04     0.01   0.964
  4451                      40.00       0.00       0.00       1.79      10.00      28.54      38.54        0.04     0.01   0.964
  4452                      40.00       0.00       0.00       1.79      10.00      28.54      38.54        0.04     0.01   0.964
  4453                      40.00       0.00       0.00       1.79      10.00      28.54      38.54        0.04     0.01   0.964
  4454                      40.00       0.00       0.00       1.79      10.00      28.54      38.54        0.04     0.01   0.964
  4462                      40.00       0.00       0.00       1.79      10.00      28.54      38.54        0.04     0.01   0.964
  4463                      40.00       0.00       0.00       1.79      10.00      28.54      38.54        0.04     0.01   0.964
  4563                      40.00       0.00       0.00       1.79      10.00      28.54      38.54        0.04     0.01   0.964
  4564                      40.00       0.00       0.00       1.79      10.00      28.54      38.54        0.04     0.01   0.964
  4565                      40.00       0.00       0.00       1.79      10.00      28.54      38.54        0.04     0.01   0.964
  4566                      40.00       0.00       0.00       1.79      10.00      28.54      38.54        0.04     0.01   0.964
  4567                      40.00       0.00       0.00       1.79      10.00      28.54      38.54        0.04     0.01   0.964
  4568                      40.00       0.00       0.00       1.79      10.00      28.54      38.54        0.04     0.01   0.964
  4569                      40.00       0.00       0.00       1.79      10.00      28.54      38.54        0.04     0.01   0.964
  4570                      40.00       0.00       0.00       1.79      10.00      28.54      38.54        0.04     0.01   0.964
  4571                      40.00       0.00       0.00       1.79      10.00      28.54      38.54        0.04     0.01   0.964
  4572                      40.00       0.00       0.00       1.79      10.00      28.54      38.54        0.04     0.01   0.964
  4573                      40.00       0.00       0.00       1.79      10.00      28.54      38.54        0.04     0.01   0.964
  4574                      40.00       0.00       0.00       1.79      10.00      28.54      38.54        0.04     0.01   0.964
  4575                      40.00       0.00       0.00       1.79      10.00      28.54      38.54        0.04     0.01   0.964
  4576                      40.00       0.00       0.00       1.79      10.00      28.54      38.54        0.04     0.01   0.964
  4577                      40.00       0.00       0.00       1.79      10.00      28.54      38.54        0.04     0.01   0.964
  4578                      40.00       0.00       0.00       1.79      10.00      28.54      38.54        0.04     0.01   0.964
  4579                      40.00       0.00       0.00       1.79      10.00      28.54      38.54        0.04     0.01   0.964
  4580                      40.00       0.00       0.00       1.79      10.00      28.54      38.54        0.04     0.01   0.964
  4581                      40.00       0.00       0.00       1.79      10.00      28.54      38.54        0.04     0.01   0.964
  4624                      40.00       0.00       0.00       1.79      10.00      28.54      38.54        0.04     0.01   0.964
  4625                      40.00       0.00       0.00       1.79      10.00      28.54      38.54        0.04     0.01   0.964
  4644                      40.00       0.00       0.00       1.79      10.00      28.54      38.54        0.04     0.01   0.964
  4645                      40.00       0.00       0.00       1.79      10.00      28.54      38.54        0.04     0.01   0.964
  4646                      40.00       0.00       0.00       1.79      10.00      28.54      38.54        0.04     0.01   0.964
  4679                      40.00       0.00       0.00       1.79      10.00      28.54      38.54        0.04     0.01   0.964
  4680                      40.00       0.00       0.00       1.79      10.00      28.54      38.54        0.04     0.01   0.964
  4681                      40.00       0.00       0.00       1.79      10.00      28.54      38.54        0.04     0.01   0.964
  4682                      40.00       0.00       0.00       1.79      10.00      28.54      38.54        0.04     0.01   0.964
  4683                      40.00       0.00       0.00       1.79      10.00      28.54      38.54        0.04     0.01   0.964
  4711                      40.00       0.00       0.00       1.79      10.00      28.54      38.54        0.04     0.01   0.964
  4712                      40.00       0.00       0.00       1.79      10.00      28.54      38.54        0.04     0.01   0.964
  4713                      40.00       0.00       0.00       1.79      10.00      28.54      38.54        0.04     0.01   0.964
  4714                      40.00       0.00       0.00       1.79      10.00      28.54      38.54        0.04     0.01   0.964
  4715                      40.00       0.00       0.00       1.79      10.00      28.54      38.54        0.04     0.01   0.964
  4716                      40.00       0.00       0.00       1.79      10.00      28.54      38.54        0.04     0.01   0.964
  4717                      40.00       0.00       0.00       1.79      10.00      28.54      38.54        0.04     0.01   0.964
  4718                      40.00       0.00       0.00       1.79      10.00      28.54      38.54        0.04     0.01   0.964
  4722                      40.00       0.00       0.00       1.79      10.00      28.54      38.54        0.04     0.01   0.964
  4760                      40.00       0.00       0.00       1.79      10.00      28.54      38.54        0.04     0.01   0.964
  4761                      40.00       0.00       0.00       1.79      10.00      28.54      38.54        0.04     0.01   0.964
  4765                      40.00       0.00       0.00       1.79      10.00      28.54      38.54        0.04     0.01   0.964
  4766                      40.00       0.00       0.00       1.79      10.00      28.54      38.54        0.04     0.01   0.964
  4767                      40.00       0.00       0.00       1.79      10.00      28.54      38.54        0.04     0.01   0.964
  4768                      40.00       0.00       0.00       1.79      10.00      28.54      38.54        0.04     0.01   0.964
  4769                      40.00       0.00       0.00       1.79      10.00      28.54      38.54        0.04     0.01   0.964
  4855                      40.00       0.00       0.00       1.79      10.00      28.54      38.54        0.04     0.01   0.964
  4856                      40.00       0.00       0.00       1.79      10.00      28.54      38.54        0.04     0.01   0.964
  5284                      40.00       0.00       0.00       1.79      10.00      28.54      38.54        0.04     0.01   0.964
  5285                      40.00       0.00       0.00       1.79      10.00      28.54      38.54        0.04     0.01   0.964
  5286                      40.00       0.00       0.00       1.79      10.00      28.54      38.54        0.04     0.01   0.964
  5287                      40.00       0.00       0.00       1.79      10.00      28.54      38.54        0.04     0.01   0.964
  5288                      40.00       0.00       0.00       1.79      10.00      28.54      38.54        0.04     0.01   0.964
  5289                      40.00       0.00       0.00       1.79      10.00      28.54      38.54        0.04     0.01   0.964
  5290                      40.00       0.00       0.00       1.79      10.00      28.54      38.54        0.04     0.01   0.964
  5291                      40.00       0.00       0.00       1.79      10.00      28.54      38.54        0.04     0.01   0.964
  5292                      40.00       0.00       0.00       1.79      10.00      28.54      38.54        0.04     0.01   0.964
  5293                      40.00       0.00       0.00       1.79      10.00      28.54      38.54        0.04     0.01   0.964
  5294                      40.00       0.00       0.00       1.79      10.00      28.54      38.54        0.04     0.01   0.964
  5295                      40.00       0.00       0.00       1.79      10.00      28.54      38.54        0.04     0.01   0.964
  5296                      40.00       0.00       0.00       1.79      10.00      28.54      38.54        0.04     0.01   0.964
  5297                      40.00       0.00       0.00       1.79      10.00      28.54      38.54        0.04     0.01   0.964
  5298                      40.00       0.00       0.00       1.79      10.00      28.54      38.54        0.04     0.01   0.964
  5299                      40.00       0.00       0.00       1.79      10.00      28.54      38.54        0.04     0.01   0.964
  5300                      40.00       0.00       0.00       1.79      10.00      28.54      38.54        0.04     0.01   0.964
  5301                      40.00       0.00       0.00       1.79      10.00      28.54      38.54        0.04     0.01   0.964
  5302                      40.00       0.00       0.00       1.79      10.00      28.54      38.54        0.04     0.01   0.964
  5303                      40.00       0.00       0.00       1.79      10.00      28.54      38.54        0.04     0.01   0.964
  5304                      40.00       0.00       0.00       1.79      10.00      28.54      38.54        0.04     0.01   0.964
  5305                      40.00       0.00       0.00       1.79      10.00      28.54      38.54        0.04     0.01   0.964
  5306                      40.00       0.00       0.00       1.79      10.00      28.54      38.54        0.04     0.01   0.964
  5307                      40.00       0.00       0.00       1.79      10.00      28.54      38.54        0.04     0.01   0.964
  5308                      40.00       0.00       0.00       1.79      10.00      28.54      38.54        0.04     0.01   0.964
  5309                      40.00       0.00       0.00       1.79      10.00      28.54      38.54        0.04     0.01   0.964
  5310                      40.00       0.00       0.00       1.79      10.00      28.54      38.54        0.04     0.01   0.964
  5311                      40.00       0.00       0.00       1.79      10.00      28.54      38.54        0.04     0.01   0.964
  5312                      40.00       0.00       0.00       1.79      10.00      28.54      38.54        0.04     0.01   0.964
  5313                      40.00       0.00       0.00       1.79      10.00      28.54      38.54        0.04     0.01   0.964
  5314                      40.00       0.00       0.00       1.79      10.00      28.54      38.54        0.04     0.01   0.964
  5315                      40.00       0.00       0.00       1.79      10.00      28.54      38.54        0.04     0.01   0.964
  5316                      40.00       0.00       0.00       1.79      10.00      28.54      38.54        0.04     0.01   0.964
  5317                      40.00       0.00       0.00       1.79      10.00      28.54      38.54        0.04     0.01   0.964
  5318                      40.00       0.00       0.00       1.79      10.00      28.54      38.54        0.04     0.01   0.964
  5319                      40.00       0.00       0.00       1.79      10.00      28.54      38.54        0.04     0.01   0.964
  5320                      40.00       0.00       0.00       1.79      10.00      28.54      38.54        0.04     0.01   0.964
  5321                      40.00       0.00       0.00       1.79      10.00      28.54      38.54        0.04     0.01   0.964
  5322                      40.00       0.00       0.00       1.79      10.00      28.54      38.54        0.04     0.01   0.964
  5323                      40.00       0.00       0.00       1.79      10.00      28.54      38.54        0.04     0.01   0.964
  5324                      40.00       0.00       0.00       1.79      10.00      28.54      38.54        0.04     0.01   0.964
  5325                      40.00       0.00       0.00       1.79      10.00      28.54      38.54        0.04     0.01   0.964
  5326                      40.00       0.00       0.00       1.79      10.00      28.54      38.54        0.04     0.01   0.964
  5327                      40.00       0.00       0.00       1.79      10.00      28.54      38.54        0.04     0.01   0.964
  5328                      40.00       0.00       0.00       1.79      10.00      28.54      38.54        0.04     0.01   0.964
  5329                      40.00       0.00       0.00       1.79      10.00      28.54      38.54        0.04     0.01   0.964
  5330                      40.00       0.00       0.00       1.79      10.00      28.54      38.54        0.04     0.01   0.964
  5333                      40.00       0.00       0.00       1.79      10.00      28.54      38.54        0.04     0.01   0.964
  5334                      40.00       0.00       0.00       1.79      10.00      28.54      38.54        0.04     0.01   0.964
  6040                      40.00       0.00       0.00       1.79      10.00      28.54      38.54        0.04     0.01   0.964
  6041                      40.00       0.00       0.00       1.79      10.00      28.54      38.54        0.04     0.01   0.964
  6162                      40.00       0.00       0.00       1.79      10.00      28.54      38.54        0.04     0.01   0.964
  7207                      40.00       0.00       0.00       1.79      10.00      28.54      38.54        0.04     0.01   0.964
  7208                      40.00       0.00       0.00       1.79      10.00      28.54      38.54        0.04     0.01   0.964
  7213                      40.00       0.00       0.00       1.79      10.00      28.54      38.54        0.04     0.01   0.964
  7214                      40.00       0.00       0.00       1.79      10.00      28.54      38.54        0.04     0.01   0.964
  7219                      40.00       0.00       0.00       1.79      10.00      28.54      38.54        0.04     0.01   0.964
  7220                      40.00       0.00       0.00       1.79      10.00      28.54      38.54        0.04     0.01   0.964
  7221                      40.00       0.00       0.00       1.79      10.00      28.54      38.54        0.04     0.01   0.964
  7225                      40.00       0.00       0.00       1.79      10.00      28.54      38.54        0.04     0.01   0.964
  7229                      40.00       0.00       0.00       1.79      10.00      28.54      38.54        0.04     0.01   0.964
  7231                      40.00       0.00       0.00       1.79      10.00      28.54      38.54        0.04     0.01   0.964
  7268                      40.00       0.00       0.00       1.79      10.00      28.54      38.54        0.04     0.01   0.964
  7269                      40.00       0.00       0.00       1.79      10.00      28.54      38.54        0.04     0.01   0.964
  7271                      40.00       0.00       0.00       1.79      10.00      28.54      38.54        0.04     0.01   0.964
  7272                      40.00       0.00       0.00       1.79      10.00      28.54      38.54        0.04     0.01   0.964
  7273                      40.00       0.00       0.00       1.79      10.00      28.54      38.54        0.04     0.01   0.964
  7433                      40.00       0.00       0.00       1.79      10.00      28.54      38.54        0.04     0.01   0.964
  7434                      40.00       0.00       0.00       1.79      10.00      28.54      38.54        0.04     0.01   0.964
  7544                      40.00       0.00       0.00       1.79      10.00      28.54      38.54        0.04     0.01   0.964
  7545                      40.00       0.00       0.00       1.79      10.00      28.54      38.54        0.04     0.01   0.964
  8737                      40.00       0.00       0.00       1.79      10.00      28.54      38.54        0.04     0.01   0.964
  8818                      40.00       0.00       0.00       1.79      10.00      28.54      38.54        0.04     0.01   0.964
  9942                      40.00       0.00       0.00       1.79      10.00      28.54      38.54        0.04     0.01   0.964
  9957                      40.00       0.00       0.00       1.79      10.00      28.54      38.54        0.04     0.01   0.964
  4399                      40.00       0.00       0.00       1.71      10.00      28.48      38.48        0.01     0.00   0.962
  4400                      40.00       0.00       0.00       1.71      10.00      28.48      38.48        0.01     0.00   0.962
  4401                      40.00       0.00       0.00       1.71      10.00      28.48      38.48        0.01     0.00   0.962
  4402                      40.00       0.00       0.00       1.71      10.00      28.48      38.48        0.01     0.00   0.962
  4403                      40.00       0.00       0.00       1.71      10.00      28.48      38.48        0.01     0.00   0.962
  4404                      40.00       0.00       0.00       1.71      10.00      28.48      38.48        0.01     0.00   0.962
  4405                      40.00       0.00       0.00       1.71      10.00      28.48      38.48        0.01     0.00   0.962
  4406                      40.00       0.00       0.00       1.71      10.00      28.48      38.48        0.01     0.00   0.962
  4407                      40.00       0.00       0.00       1.71      10.00      28.48      38.48        0.01     0.00   0.962
  4408                      40.00       0.00       0.00       1.71      10.00      28.48      38.48        0.01     0.00   0.962
  4409                      40.00       0.00       0.00       1.71      10.00      28.48      38.48        0.01     0.00   0.962
  4410                      40.00       0.00       0.00       1.71      10.00      28.48      38.48        0.01     0.00   0.962
  4411                      40.00       0.00       0.00       1.71      10.00      28.48      38.48        0.01     0.00   0.962
  4412                      40.00       0.00       0.00       1.71      10.00      28.48      38.48        0.01     0.00   0.962
  4423                      40.00       0.00       0.00       1.71      10.00      28.48      38.48        0.01     0.00   0.962
  4424                      40.00       0.00       0.00       1.71      10.00      28.48      38.48        0.01     0.00   0.962
  4425                      40.00       0.00       0.00       1.71      10.00      28.48      38.48        0.01     0.00   0.962
  4426                      40.00       0.00       0.00       1.71      10.00      28.48      38.48        0.01     0.00   0.962
  4427                      40.00       0.00       0.00       1.71      10.00      28.48      38.48        0.01     0.00   0.962
  4428                      40.00       0.00       0.00       1.71      10.00      28.48      38.48        0.01     0.00   0.962
  4455                      40.00       0.00       0.00       1.71      10.00      28.48      38.48        0.01     0.00   0.962
  4456                      40.00       0.00       0.00       1.71      10.00      28.48      38.48        0.01     0.00   0.962
  4457                      40.00       0.00       0.00       1.71      10.00      28.48      38.48        0.01     0.00   0.962
  4458                      40.00       0.00       0.00       1.71      10.00      28.48      38.48        0.01     0.00   0.962
  4459                      40.00       0.00       0.00       1.71      10.00      28.48      38.48        0.01     0.00   0.962
  4460                      40.00       0.00       0.00       1.71      10.00      28.48      38.48        0.01     0.00   0.962
  4461                      40.00       0.00       0.00       1.71      10.00      28.48      38.48        0.01     0.00   0.962
  4464                      40.00       0.00       0.00       1.71      10.00      28.48      38.48        0.01     0.00   0.962
  4465                      40.00       0.00       0.00       1.71      10.00      28.48      38.48        0.01     0.00   0.962
  4466                      40.00       0.00       0.00       1.71      10.00      28.48      38.48        0.01     0.00   0.962
  4467                      40.00       0.00       0.00       1.71      10.00      28.48      38.48        0.01     0.00   0.962
  4468                      40.00       0.00       0.00       1.71      10.00      28.48      38.48        0.01     0.00   0.962
  4469                      40.00       0.00       0.00       1.71      10.00      28.48      38.48        0.01     0.00   0.962
  4470                      40.00       0.00       0.00       1.71      10.00      28.48      38.48        0.01     0.00   0.962
  4471                      40.00       0.00       0.00       1.71      10.00      28.48      38.48        0.01     0.00   0.962
  4472                      40.00       0.00       0.00       1.71      10.00      28.48      38.48        0.01     0.00   0.962
  4473                      40.00       0.00       0.00       1.71      10.00      28.48      38.48        0.01     0.00   0.962
  4474                      40.00       0.00       0.00       1.71      10.00      28.48      38.48        0.01     0.00   0.962
  4628                      40.00       0.00       0.00       1.71      10.00      28.48      38.48        0.01     0.00   0.962
  4631                      40.00       0.00       0.00       1.71      10.00      28.48      38.48        0.01     0.00   0.962
  4632                      40.00       0.00       0.00       1.71      10.00      28.48      38.48        0.01     0.00   0.962
  4633                      40.00       0.00       0.00       1.71      10.00      28.48      38.48        0.01     0.00   0.962
  4634                      40.00       0.00       0.00       1.71      10.00      28.48      38.48        0.01     0.00   0.962
  4637                      40.00       0.00       0.00       1.71      10.00      28.48      38.48        0.01     0.00   0.962
  4686                      40.00       0.00       0.00       1.71      10.00      28.48      38.48        0.01     0.00   0.962
  4687                      40.00       0.00       0.00       1.71      10.00      28.48      38.48        0.01     0.00   0.962
  4688                      40.00       0.00       0.00       1.71      10.00      28.48      38.48        0.01     0.00   0.962
  5032                      40.00       0.00       0.00       1.71      10.00      28.48      38.48        0.01     0.00   0.962
  5331                      40.00       0.00       0.00       1.71      10.00      28.48      38.48        0.01     0.00   0.962
  5332                      40.00       0.00       0.00       1.71      10.00      28.48      38.48        0.01     0.00   0.962
  5335                      40.00       0.00       0.00       1.71      10.00      28.48      38.48        0.01     0.00   0.962
  5336                      40.00       0.00       0.00       1.71      10.00      28.48      38.48        0.01     0.00   0.962
  5337                      40.00       0.00       0.00       1.71      10.00      28.48      38.48        0.01     0.00   0.962
  5338                      40.00       0.00       0.00       1.71      10.00      28.48      38.48        0.01     0.00   0.962
  5339                      40.00       0.00       0.00       1.71      10.00      28.48      38.48        0.01     0.00   0.962
  5340                      40.00       0.00       0.00       1.71      10.00      28.48      38.48        0.01     0.00   0.962
  5341                      40.00       0.00       0.00       1.71      10.00      28.48      38.48        0.01     0.00   0.962
  5342                      40.00       0.00       0.00       1.71      10.00      28.48      38.48        0.01     0.00   0.962
  5343                      40.00       0.00       0.00       1.71      10.00      28.48      38.48        0.01     0.00   0.962
  5344                      40.00       0.00       0.00       1.71      10.00      28.48      38.48        0.01     0.00   0.962
  5345                      40.00       0.00       0.00       1.71      10.00      28.48      38.48        0.01     0.00   0.962
  5346                      40.00       0.00       0.00       1.71      10.00      28.48      38.48        0.01     0.00   0.962
  5347                      40.00       0.00       0.00       1.71      10.00      28.48      38.48        0.01     0.00   0.962
  5348                      40.00       0.00       0.00       1.71      10.00      28.48      38.48        0.01     0.00   0.962
  5349                      40.00       0.00       0.00       1.71      10.00      28.48      38.48        0.01     0.00   0.962
  5350                      40.00       0.00       0.00       1.71      10.00      28.48      38.48        0.01     0.00   0.962
  6088                      40.00       0.00       0.00       1.71      10.00      28.48      38.48        0.01     0.00   0.962
  7275                      40.00       0.00       0.00       1.71      10.00      28.48      38.48        0.01     0.00   0.962
  9955                      40.00       0.00       0.00       1.71      10.00      28.48      38.48        0.01     0.00   0.962
  9956                      40.00       0.00       0.00       1.71      10.00      28.48      38.48        0.01     0.00   0.962
  
  
  ****************************
  Subcatchment Washoff Summary
  ****************************
  
  ----------------------------------
                                 COD
  Subcatchment                    kg
  ----------------------------------
  2707                        10.137
  2708                        10.137
  2709                        10.137
  2710                        10.137
  2712                        10.137
  2713                        10.137
  2714                        10.137
  2715                        10.137
  2716                        10.137
  2717                        10.137
  2718                        10.137
  2719                        10.137
  2721                        10.137
  2722                        10.137
  2723                        10.137
  2724                        10.137
  2725                        10.137
  2726                        10.137
  2727                        10.137
  2728                        10.137
  2729                        10.137
  2730                        10.137
  2731                        10.137
  2732                        10.137
  2733                        10.137
  2734                        10.137
  2735                        10.137
  2736                        10.137
  2737                        10.137
  2738                        10.137
  2739                        10.137
  2740                        10.137
  2741                        10.137
  2742                        10.137
  2743                        10.137
  2744                        10.137
  2745                        10.137
  2746                        10.137
  2747                        10.137
  2748                        10.137
  2749                        10.137
  2750                        10.137
  2751                        10.137
  2752                        10.137
  2753                        10.137
  2754                        10.137
  2755                        10.137
  2756                        10.137
  2964                        10.137
  2969                        10.137
  2970                        10.137
  2974                        10.137
  2975                        10.137
  2976                        10.137
  2977                        10.137
  2978                        10.137
  2979                        10.137
  2980                        10.137
  2981                        10.137
  2982                        10.137
  2984                        10.137
  2985                        10.137
  3925                        10.137
  3926                        10.137
  3927                        10.137
  3928                        10.137
  3929                        10.137
  3930                        10.137
  3931                        10.137
  3932                        10.137
  3933                        10.137
  3934                        10.137
  3935                        10.137
  3936                        10.137
  3937                        10.137
  3938                        10.137
  3939                        10.137
  3940                        10.137
  3941                        10.137
  3942                        10.137
  3943                        10.137
  3944                        10.137
  3945                        10.137
  3946                        10.137
  3947                        10.137
  3948                        10.137
  3949                        10.137
  3950                        10.137
  3951                        10.137
  3952                        10.137
  3953                        10.137
  3954                        10.137
  3955                        10.137
  3956                        10.137
  4032                        10.137
  4033                        10.137
  4041                        10.137
  4051                        10.137
  4055                        10.137
  4056                        10.137
  4058                        10.137
  4385                        10.137
  4386                        10.137
  4387                        10.137
  4388                        10.137
  4389                        10.137
  4390                        10.137
  4391                        10.137
  4392                        10.137
  4393                        10.137
  4394                        10.137
  4395                        10.137
  4396                        10.137
  4397                        10.137
  4398                        10.137
  4429                        10.137
  4430                        10.137
  4431                        10.137
  4432                        10.137
  4433                        10.137
  4434                        10.137
  4435                        10.137
  4436                        10.137
  4437                        10.137
  4438                        10.137
  4439                        10.137
  4440                        10.137
  4441                        10.137
  4442                        10.137
  4443                        10.137
  4444                        10.137
  4445                        10.137
  4446                        10.137
  4447                        10.137
  4448                        10.137
  4449                        10.137
  4450                        10.137
  4451                        10.137
  4452                        10.137
  4453                        10.137
  4454                        10.137
  4462                        10.137
  4463                        10.137
  4563                        10.137
  4564                        10.137
  4565                        10.137
  4566                        10.137
  4567                        10.137
  4568                        10.137
  4569                        10.137
  4570                        10.137
  4571                        10.137
  4572                        10.137
  4573                        10.137
  4574                        10.137
  4575                        10.137
  4576                        10.137
  4577                        10.137
  4578                        10.137
  4579                        10.137
  4580                        10.137
  4581                        10.137
  4624                        10.137
  4625                        10.137
  4644                        10.137
  4645                        10.137
  4646                        10.137
  4679                        10.137
  4680                        10.137
  4681                        10.137
  4682                        10.137
  4683                        10.137
  4711                        10.137
  4712                        10.137
  4713                        10.137
  4714                        10.137
  4715                        10.137
  4716                        10.137
  4717                        10.137
  4718                        10.137
  4722                        10.137
  4760                        10.137
  4761                        10.137
  4765                        10.137
  4766                        10.137
  4767                        10.137
  4768                        10.137
  4769                        10.137
  4855                        10.137
  4856                        10.137
  5284                        10.137
  5285                        10.137
  5286                        10.137
  5287                        10.137
  5288                        10.137
  5289                        10.137
  5290                        10.137
  5291                        10.137
  5292                        10.137
  5293                        10.137
  5294                        10.137
  5295                        10.137
  5296                        10.137
  5297                        10.137
  5298                        10.137
  5299                        10.137
  5300                        10.137
  5301                        10.137
  5302                        10.137
  5303                        10.137
  5304                        10.137
  5305                        10.137
  5306                        10.137
  5307                        10.137
  5308                        10.137
  5309                        10.137
  5310                        10.137
  5311                        10.137
  5312                        10.137
  5313                        10.137
  5314                        10.137
  5315                        10.137
  5316                        10.137
  5317                        10.137
  5318                        10.137
  5319                        10.137
  5320                        10.137
  5321                        10.137
  5322                        10.137
  5323                        10.137
  5324                        10.137
  5325                        10.137
  5326                        10.137
  5327                        10.137
  5328                        10.137
  5329                        10.137
  5330                        10.137
  5333                        10.137
  5334                        10.137
  6040                        10.137
  6041                        10.137
  6162                        10.137
  7207                        10.137
  7208                        10.137
  7213                        10.137
  7214                        10.137
  7219                        10.137
  7220                        10.137
  7221                        10.137
  7225                        10.137
  7229                        10.137
  7231                        10.137
  7268                        10.137
  7269                        10.137
  7271                        10.137
  7272                        10.137
  7273                        10.137
  7433                        10.137
  7434                        10.137
  7544                        10.137
  7545                        10.137
  8737                        10.137
  8818                        10.137
  9942                        10.137
  9957                        10.137
  4399                         3.036
  4400                         3.036
  4401                         3.036
  4402                         3.036
  4403                         3.036
  4404                         3.036
  4405                         3.036
  4406                         3.036
  4407                         3.036
  4408                         3.036
  4409                         3.036
  4410                         3.036
  4411                         3.036
  4412                         3.036
  4423                         3.036
  4424                         3.036
  4425                         3.036
  4426                         3.036
  4427                         3.036
  4428                         3.036
  4455                         3.036
  4456                         3.036
  4457                         3.036
  4458                         3.036
  4459                         3.036
  4460                         3.036
  4461                         3.036
  4464                         3.036
  4465                         3.036
  4466                         3.036
  4467                         3.036
  4468                         3.036
  4469                         3.036
  4470                         3.036
  4471                         3.036
  4472                         3.036
  4473                         3.036
  4474                         3.036
  4628                         3.036
  4631                         3.036
  4632                         3.036
  4633                         3.036
  4634                         3.036
  4637                         3.036
  4686                         3.036
  4687                         3.036
  4688                         3.036
  5032                         3.036
  5331                         3.036
  5332                         3.036
  5335                         3.036
  5336                         3.036
  5337                         3.036
  5338                         3.036
  5339                         3.036
  5340                         3.036
  5341                         3.036
  5342                         3.036
  5343                         3.036
  5344                         3.036
  5345                         3.036
  5346                         3.036
  5347                         3.036
  5348                         3.036
  5349                         3.036
  5350                         3.036
  6088                         3.036
  7275                         3.036
  9955                         3.036
  9956                         3.036
  ----------------------------------
  System                    2898.894
  
  
  ******************
  Node Depth Summary
  ******************
  
  ---------------------------------------------------------------------------------
                                 Average  Maximum  Maximum  Time of Max    Reported
                                   Depth    Depth      HGL   Occurrence   Max Depth
  Node                 Type       Meters   Meters   Meters  days hr:min      Meters
  ---------------------------------------------------------------------------------
  Node_02706           JUNCTION     3.34     4.86   101.70     0  04:14        0.00
  Node_02707           JUNCTION     1.21     2.14   101.57     0  04:06        0.00
  Node_02708           JUNCTION     1.01     1.93   101.68     0  04:12        0.00
  Node_02709           JUNCTION     1.12     2.05   101.68     0  04:12        0.00
  Node_02711           JUNCTION     0.82     1.77   101.69     0  04:10        0.00
  Node_02712           JUNCTION     0.83     1.78   101.68     0  04:13        0.00
  Node_02713           JUNCTION     0.87     1.83   101.68     0  04:06        0.00
  Node_02714           JUNCTION     0.46     1.28   101.68     0  04:12        0.00
  Node_02715           JUNCTION     0.89     1.86   101.67     0  04:10        0.00
  Node_02716           JUNCTION     0.96     1.93   101.65     0  04:13        0.00
  Node_02717           JUNCTION     1.03     2.00   101.63     0  04:12        0.00
  Node_02718           JUNCTION     1.05     2.00   101.60     0  04:06        0.00
  Node_02720           JUNCTION     1.08     2.03   101.60     0  04:12        0.00
  Node_02721           JUNCTION     1.38     2.32   101.57     0  04:06        0.00
  Node_02722           JUNCTION     0.14     0.19   101.99     0  04:15        0.00
  Node_02723           JUNCTION     1.32     2.27   101.56     0  04:06        0.00
  Node_02724           JUNCTION     1.19     2.12   101.54     0  04:11        0.00
  Node_02725           JUNCTION     1.22     2.14   101.51     0  04:09        0.00
  Node_02726           JUNCTION     1.31     2.21   101.47     0  04:13        0.00
  Node_02727           JUNCTION     1.42     2.30   101.43     0  04:10        0.00
  Node_02728           JUNCTION     0.68     1.35   101.43     0  04:11        0.00
  Node_02729           JUNCTION     1.47     2.32   101.38     0  04:09        0.00
  Node_02730           JUNCTION     1.49     2.30   101.33     0  04:13        0.00
  Node_02731           JUNCTION     1.91     2.67   101.26     0  04:14        0.00
  Node_02732           JUNCTION     1.48     2.19   101.21     0  01:53        0.00
  Node_02733           JUNCTION     1.48     2.28   101.29     0  04:10        0.00
  Node_02734           JUNCTION     1.77     2.63   101.34     0  04:11        0.00
  Node_02735           JUNCTION     1.67     2.53   101.34     0  04:05        0.00
  Node_02736           JUNCTION     1.87     2.79   101.40     0  04:05        0.00
  Node_02737           JUNCTION     1.85     2.82   101.44     0  04:11        0.00
  Node_02738           JUNCTION     1.69     2.73   101.50     0  04:05        0.00
  Node_02739           JUNCTION     1.57     2.68   101.55     0  04:05        0.00
  Node_02740           JUNCTION     1.59     2.74   101.58     0  04:13        0.00
  Node_02741           JUNCTION     1.22     2.29   101.59     0  04:05        0.00
  Node_02742           JUNCTION     1.61     2.81   101.61     0  04:05        0.00
  Node_02743           JUNCTION     2.03     3.28   101.65     0  04:05        0.00
  Node_02744           JUNCTION     1.18     2.30   101.65     0  04:05        0.00
  Node_02745           JUNCTION     1.77     3.04   101.66     0  04:06        0.00
  Node_02746           JUNCTION     1.68     2.99   101.68     0  04:05        0.00
  Node_02747           JUNCTION     0.45     1.32   101.68     0  04:05        0.00
  Node_02748           JUNCTION     0.38     1.23   101.68     0  04:05        0.00
  Node_02749           JUNCTION     1.70     3.05   101.69     0  04:05        0.00
  Node_02750           JUNCTION     1.71     3.09   101.70     0  04:05        0.00
  Node_02751           JUNCTION     1.70     3.11   101.71     0  04:05        0.00
  Node_02752           JUNCTION     1.73     3.16   101.71     0  04:05        0.00
  Node_02753           JUNCTION     1.77     3.23   101.71     0  04:05        0.00
  Node_02754           JUNCTION     1.86     3.39   101.71     0  04:05        0.00
  Node_02755           JUNCTION     2.79     4.31   101.70     0  04:12        0.00
  Node_02963           JUNCTION     0.82     1.73   101.64     0  04:06        0.00
  Node_02968           JUNCTION     0.62     1.43   101.55     0  04:14        0.00
  Node_02969           JUNCTION     0.78     1.77   101.65     0  04:05        0.00
  Node_02973           JUNCTION     2.31     3.81   101.70     0  04:14        0.00
  Node_02974           JUNCTION     2.68     4.49   101.62     0  04:12        0.00
  Node_02975           JUNCTION     2.68     4.49   101.62     0  04:12        0.00
  Node_02976           JUNCTION     2.69     4.47   101.66     0  04:14        0.00
  Node_02977           JUNCTION     2.66     4.39   101.73     0  04:05        0.00
  Node_02978           JUNCTION     2.54     4.26   101.79     0  04:05        0.00
  Node_02979           JUNCTION     2.64     4.47   101.58     0  04:14        0.00
  Node_02980           JUNCTION     2.60     4.46   101.54     0  04:15        0.00
  Node_02981           JUNCTION     2.64     4.56   101.51     0  04:06        0.00
  Node_02983           JUNCTION     0.62     1.37   101.49     0  04:05        0.00
  Node_02984           JUNCTION     3.00     4.73   101.71     0  04:05        0.00
  Node_03924           JUNCTION     0.28     1.00   101.82     0  01:26        0.00
  Node_03925           JUNCTION     0.66     2.05   102.42     0  04:11        0.00
  Node_03926           JUNCTION     0.09     0.96   102.43     0  04:11        0.00
  Node_03927           JUNCTION     0.64     2.04   102.42     0  04:11        0.00
  Node_03928           JUNCTION     0.67     2.07   102.42     0  04:11        0.00
  Node_03929           JUNCTION     0.68     2.09   102.40     0  04:10        0.00
  Node_03930           JUNCTION     0.72     2.13   102.38     0  04:11        0.00
  Node_03931           JUNCTION     0.72     2.12   102.37     0  04:11        0.00
  Node_03932           JUNCTION     0.77     2.15   102.32     0  04:12        0.00
  Node_03933           JUNCTION     0.78     2.12   102.25     0  04:11        0.00
  Node_03934           JUNCTION     0.29     1.39   102.25     0  04:13        0.00
  Node_03935           JUNCTION     0.87     2.17   102.14     0  04:14        0.00
  Node_03936           JUNCTION     0.89     2.11   102.04     0  04:13        0.00
  Node_03937           JUNCTION     1.27     1.77   101.93     0  04:15        0.00
  Node_03938           JUNCTION     1.86     3.27   102.46     0  01:24        0.00
  Node_03939           JUNCTION     1.98     3.41   102.45     0  01:24        0.00
  Node_03940           JUNCTION     2.06     3.48   102.41     0  01:24        0.00
  Node_03941           JUNCTION     2.15     3.53   102.34     0  01:24        0.00
  Node_03942           JUNCTION     2.19     3.53   102.28     0  04:09        0.00
  Node_03943           JUNCTION     2.29     3.58   102.19     0  01:24        0.00
  Node_03944           JUNCTION     2.39     3.69   102.17     0  01:24        0.00
  Node_03945           JUNCTION     2.45     3.78   102.20     0  01:24        0.00
  Node_03946           JUNCTION     2.51     3.90   102.26     0  01:24        0.00
  Node_03947           JUNCTION     2.85     4.42   102.31     0  04:12        0.00
  Node_03948           JUNCTION     2.84     4.48   102.33     0  04:13        0.00
  Node_03949           JUNCTION     2.96     4.64   102.34     0  04:11        0.00
  Node_03950           JUNCTION     2.84     4.57   102.34     0  04:05        0.00
  Node_03951           JUNCTION     2.85     4.65   102.34     0  04:11        0.00
  Node_03952           JUNCTION     2.88     4.74   102.33     0  04:05        0.00
  Node_03953           JUNCTION     2.81     4.74   102.31     0  04:05        0.00
  Node_03954           JUNCTION     3.71     5.66   102.24     0  04:13        0.00
  Node_03955           JUNCTION     2.68     4.65   102.14     0  04:13        0.00
  Node_04031           JUNCTION     0.49     1.03   102.26     0  01:24        0.00
  Node_04032           JUNCTION     2.47     3.93   102.28     0  04:12        0.00
  Node_04040           JUNCTION     0.88     1.87   102.42     0  01:25        0.00
  Node_04050           JUNCTION     0.37     1.64   102.60     0  04:41        0.00
  Node_04054           JUNCTION     0.18     1.27   102.41     0  04:11        0.00
  Node_04055           JUNCTION     0.37     1.50   102.31     0  04:14        0.00
  Node_04057           JUNCTION     0.57     1.60   101.91     0  01:27        0.00
  Node_04384           JUNCTION     2.66     4.32   101.90     0  04:05        0.00
  Node_04385           JUNCTION     2.36     4.00   101.91     0  04:05        0.00
  Node_04386           JUNCTION     2.36     3.97   101.92     0  04:05        0.00
  Node_04387           JUNCTION     2.35     3.96   101.92     0  04:05        0.00
  Node_04388           JUNCTION     2.34     3.92   101.92     0  04:05        0.00
  Node_04389           JUNCTION     0.60     1.56   101.93     0  04:05        0.00
  Node_04390           JUNCTION     2.33     3.90   101.92     0  04:05        0.00
  Node_04391           JUNCTION     2.32     3.86   101.92     0  04:05        0.00
  Node_04392           JUNCTION     2.43     3.97   101.93     0  04:05        0.00
  Node_04393           JUNCTION     2.30     3.80   101.91     0  04:05        0.00
  Node_04394           JUNCTION     1.09     2.27   101.91     0  04:05        0.00
  Node_04395           JUNCTION     2.28     3.76   101.91     0  04:05        0.00
  Node_04396           JUNCTION     2.26     3.70   101.90     0  04:12        0.00
  Node_04397           JUNCTION     0.91     2.00   101.90     0  04:05        0.00
  Node_04428           JUNCTION     2.26     3.68   101.90     0  04:06        0.00
  Node_04429           JUNCTION     2.25     3.64   101.89     0  04:08        0.00
  Node_04430           JUNCTION     2.23     3.61   101.89     0  04:14        0.00
  Node_04431           JUNCTION     2.00     3.32   101.89     0  04:11        0.00
  Node_04432           JUNCTION     1.90     3.20   101.88     0  04:10        0.00
  Node_04433           JUNCTION     1.72     3.00   101.88     0  04:10        0.00
  Node_04434           JUNCTION     2.01     3.28   101.87     0  04:09        0.00
  Node_04435           JUNCTION     1.84     3.07   101.85     0  04:13        0.00
  Node_04436           JUNCTION     2.23     3.44   101.84     0  04:11        0.00
  Node_04437           JUNCTION     2.36     3.53   101.82     0  04:08        0.00
  Node_04438           JUNCTION     2.65     3.82   101.83     0  04:14        0.00
  Node_04439           JUNCTION     1.70     2.86   101.84     0  04:12        0.00
  Node_04440           JUNCTION     1.68     2.82   101.84     0  04:10        0.00
  Node_04441           JUNCTION     1.40     2.51   101.84     0  04:14        0.00
  Node_04442           JUNCTION     1.74     2.87   101.84     0  04:09        0.00
  Node_04443           JUNCTION     1.60     2.71   101.84     0  04:09        0.00
  Node_04444           JUNCTION     1.58     2.67   101.85     0  04:09        0.00
  Node_04445           JUNCTION     1.50     2.59   101.85     0  04:08        0.00
  Node_04446           JUNCTION     1.46     2.53   101.86     0  04:14        0.00
  Node_04447           JUNCTION     1.38     2.43   101.87     0  04:09        0.00
  Node_04448           JUNCTION     1.39     2.43   101.88     0  04:11        0.00
  Node_04449           JUNCTION     1.40     2.44   101.89     0  01:31        0.00
  Node_04450           JUNCTION     1.54     2.59   101.91     0  01:31        0.00
  Node_04451           JUNCTION     1.34     2.38   101.93     0  01:31        0.00
  Node_04452           JUNCTION     1.09     2.13   101.95     0  01:31        0.00
  Node_04453           JUNCTION     0.79     1.73   101.95     0  01:31        0.00
  Node_04461           JUNCTION     1.29     2.29   101.91     0  01:31        0.00
  Node_04462           JUNCTION     1.27     2.29   101.94     0  01:31        0.00
  Node_04562           JUNCTION     1.29     2.46   102.05     0  01:30        0.00
  Node_04563           JUNCTION     1.66     2.92   102.04     0  01:30        0.00
  Node_04564           JUNCTION     1.46     2.68   102.06     0  01:30        0.00
  Node_04565           JUNCTION     1.47     2.72   102.08     0  01:30        0.00
  Node_04566           JUNCTION     1.62     2.88   102.07     0  01:30        0.00
  Node_04567           JUNCTION     1.59     2.83   102.05     0  01:30        0.00
  Node_04568           JUNCTION     1.61     2.84   102.02     0  01:30        0.00
  Node_04569           JUNCTION     1.78     3.04   102.01     0  01:30        0.00
  Node_04570           JUNCTION     1.19     2.29   102.02     0  01:30        0.00
  Node_04571           JUNCTION     1.80     2.99   101.92     0  01:30        0.00
  Node_04572           JUNCTION     3.19     4.43   101.96     0  04:12        0.00
  Node_04573           JUNCTION     2.87     4.13   101.97     0  04:12        0.00
  Node_04574           JUNCTION     2.80     3.67   101.97     0  04:05        0.00
  Node_04575           JUNCTION     3.36     4.66   101.97     0  04:14        0.00
  Node_04576           JUNCTION     1.99     3.32   101.97     0  04:12        0.00
  Node_04577           JUNCTION     2.02     3.38   101.96     0  04:05        0.00
  Node_04578           JUNCTION     2.07     3.45   101.95     0  04:13        0.00
  Node_04579           JUNCTION     2.13     3.52   101.93     0  04:10        0.00
  Node_04580           JUNCTION     1.09     1.98   101.76     0  01:31        0.00
  Node_04623           JUNCTION     0.99     2.25   101.91     0  04:05        0.00
  Node_04624           JUNCTION     1.26     2.38   101.84     0  04:03        0.00
  Node_04643           JUNCTION     1.01     2.00   101.90     0  01:31        0.00
  Node_04644           JUNCTION     1.03     2.00   101.84     0  04:09        0.00
  Node_04645           JUNCTION     1.24     2.05   101.65     0  01:31        0.00
  Node_04678           JUNCTION     1.05     2.18   101.90     0  04:12        0.00
  Node_04679           JUNCTION     0.63     1.73   101.91     0  04:05        0.00
  Node_04680           JUNCTION     2.45     4.11   101.88     0  04:05        0.00
  Node_04681           JUNCTION     2.45     4.12   101.84     0  04:05        0.00
  Node_04682           JUNCTION     0.38     0.96   101.97     0  04:05        0.00
  Node_04710           JUNCTION     0.81     1.96   101.95     0  01:48        0.00
  Node_04711           JUNCTION     0.84     2.40   102.39     0  01:48        0.00
  Node_04712           JUNCTION     0.83     2.61   102.62     0  01:48        0.00
  Node_04713           JUNCTION     0.79     2.58   102.63     0  01:48        0.00
  Node_04714           JUNCTION     0.82     2.60   102.65     0  01:48        0.00
  Node_04715           JUNCTION     0.79     2.52   102.61     0  01:48        0.00
  Node_04716           JUNCTION     0.78     2.46   102.59     0  04:44        0.00
  Node_04717           JUNCTION     0.52     1.15   101.45     0  04:05        0.00
  Node_04721           JUNCTION     0.77     1.61   101.96     0  04:13        0.00
  Node_04759           JUNCTION     0.85     1.79   101.97     0  04:11        0.00
  Node_04760           JUNCTION     0.92     2.11   101.57     0  04:04        0.00
  Node_04764           JUNCTION     0.94     1.59   101.51     0  01:31        0.00
  Node_04765           JUNCTION     0.68     1.51   101.93     0  01:31        0.00
  Node_04766           JUNCTION     1.18     2.26   102.03     0  01:30        0.00
  Node_04767           JUNCTION     1.14     2.26   102.09     0  01:30        0.00
  Node_04768           JUNCTION     1.26     2.35   102.01     0  01:30        0.00
  Node_04854           JUNCTION     0.52     1.49   101.92     0  04:05        0.00
  Node_04855           JUNCTION     1.18     2.05   101.97     0  04:05        0.00
  Node_05283           JUNCTION     2.31     3.65   102.27     0  01:24        0.00
  Node_05284           JUNCTION     2.28     3.61   102.27     0  01:24        0.00
  Node_05285           JUNCTION     2.22     3.47   102.22     0  01:24        0.00
  Node_05286           JUNCTION     2.18     3.42   102.22     0  01:24        0.00
  Node_05287           JUNCTION     2.15     3.42   102.27     0  01:24        0.00
  Node_05288           JUNCTION     2.13     3.41   102.28     0  01:24        0.00
  Node_05289           JUNCTION     1.59     2.70   102.22     0  01:24        0.00
  Node_05290           JUNCTION     2.12     3.40   102.29     0  01:24        0.00
  Node_05291           JUNCTION     1.90     3.19   102.39     0  01:25        0.00
  Node_05292           JUNCTION     1.86     3.17   102.42     0  01:25        0.00
  Node_05293           JUNCTION     1.85     3.16   102.42     0  01:25        0.00
  Node_05294           JUNCTION     1.81     3.13   102.44     0  01:25        0.00
  Node_05295           JUNCTION     1.85     3.17   102.44     0  01:25        0.00
  Node_05296           JUNCTION     1.81     3.14   102.46     0  01:25        0.00
  Node_05297           JUNCTION     1.62     2.79   102.30     0  01:24        0.00
  Node_05298           JUNCTION     1.76     3.06   102.45     0  01:25        0.00
  Node_05299           JUNCTION     1.75     3.06   102.47     0  01:25        0.00
  Node_05300           JUNCTION     1.71     3.00   102.45     0  01:25        0.00
  Node_05301           JUNCTION     1.68     2.93   102.42     0  01:25        0.00
  Node_05302           JUNCTION     1.67     2.95   102.45     0  01:25        0.00
  Node_05303           JUNCTION     1.64     2.88   102.43     0  01:25        0.00
[...]
  Link_02383                  4.34      4.34      4.58      0.01         0.01
  Link_02384                  4.58      4.58      4.58      0.01         0.01
  Link_02385                  4.58      4.58      4.58      0.01         0.29
  Link_02386                  3.74      3.74      3.77      0.01         0.01
  Link_02387                  4.58      4.58      4.59      0.01         0.01
  Link_02388                  4.59      4.59      4.60      0.01         0.01
  Link_02389                  3.92      3.92      4.58      0.01         0.01
  Link_02390                  4.61      4.61      4.61      0.01         0.03
  Link_02391                  4.61      4.61      4.64      0.01         0.01
  Link_02392                  3.90      3.90      4.21      0.01         0.01
  Link_02393                  4.64      4.64      4.64      0.40         0.38
  Link_05459                  4.18      4.18      4.19      0.01         0.01
  Link_05460                  4.43      4.43      4.44      0.01         0.01
  Link_05461                  4.52      4.52      4.52      0.22         0.26
  Link_05462                  4.53      4.53      4.54      0.85         0.64
  Link_05463                  4.51      4.53      4.51      0.95         0.90
  Link_05464                  4.49      4.49      4.49      0.01         1.40
  Link_05496                  4.59      4.61      4.59      2.45         2.49
  Link_05662                  3.06      3.06      3.11      0.01         0.01
  Link_05663                  3.55      3.55      3.66      0.01         0.01
  Link_05664                  4.67      4.67      4.68      0.04         0.05
  Link_05665                  4.66      4.73      4.66      4.80         4.33
  Link_05677                  4.68      4.68      4.68      3.00         2.70
  Link_05678                  3.12      3.12      3.13      0.01         0.01
  Link_05720                  4.58      4.59      4.58      0.57         0.58
  Link_05721                  4.61      4.62      4.61      0.50         0.48
  Link_05722                  3.92      3.92      4.07      0.01         0.01
  Link_05726                  4.60      4.60      4.61      0.01         0.01
  Link_05727                  4.60      4.60      4.60      0.01         0.06
  Link_05728                  4.57      4.57      4.57      0.01         0.01
  Link_05729                  4.31      4.31      4.32      0.88         1.50
  Link_05731                  0.18      0.20      0.18      0.65         0.18
  Link_05742                  3.80      3.80      3.85      0.01         0.01
  Link_05743                  4.64      4.64      4.64      0.01         0.02
  Link_05744                  4.65      4.65      4.67      0.12         0.13
  Link_05752                  3.64      3.64      3.68      1.69         0.01
  Link_05812                  4.64      4.64      4.65      0.01         0.01
  Link_05813                  4.36      4.36      4.42      0.01         0.01
  Link_05814                  3.92      3.92      4.02      0.03         0.01
  Link_05815                  3.76      3.76      3.82      0.01         0.01
  Link_05983                  3.08      3.08      3.30      0.01         0.01
  Link_05984                  2.63      2.63      2.67      0.01         0.01
  Link_07220                  3.43      3.43      3.46      0.04         0.07
  Link_07221                  3.46      3.46      3.46      0.66         1.11
  Link_07222                  3.46      3.46      3.48      0.76         0.68
  Link_07230                  3.48      3.48      3.51      0.37         0.40
  Link_07231                  3.51      3.51      3.52      1.02         1.00
  Link_07233                  3.58      3.63      3.58      2.88         2.78
  Link_07234                  3.60      3.61      3.60      3.80         3.53
  Link_07235                  3.64      3.64      3.65      0.66         0.58
  Link_07270                  0.81      0.81      1.64      0.01         0.01
  Link_07271                  1.64      1.64      2.27      0.02         0.03
  Link_07274                  1.04      1.04      1.10      0.01         0.03
  Link_07277                  2.64      2.65      3.30      0.03         0.07
  Link_07278                  3.34      3.35      3.38      0.05         0.09
  Link_07295                  3.36      3.38      3.41      0.06         0.07
  Link_07296                  3.41      3.41      3.43      0.25         0.17
  Link_07297                  3.43      3.43      3.43      0.65         0.61
  Link_07303                  3.35      3.35      3.38      0.01         0.06
  Link_07306                  2.11      2.11      3.28      0.01         0.01
  Link_07464                  4.21      4.21      4.23      0.01         0.01
  Link_07578                  3.71      3.71      3.72      0.01         0.01
  Link_07579                  4.07      4.07      4.22      0.01         0.01
  Link_07580                  3.89      3.89      4.07      0.01         0.01
  Link_07687                  4.62      4.62      4.63      0.01         0.01
  Link_08891                  3.05      3.05      3.75      0.01         0.01
  Link_08912                  2.86      2.86      3.56      0.01         0.01
  Link1_to_ChengXi            4.37      4.46      4.37      0.18         0.04
  Link2_to_ChengXi            4.34      4.91      4.34      4.63         3.97
  Link3_to_ChengXi            3.13      3.62      3.23      1.26         0.77
  
  
  ***************
  Pumping Summary
  ***************
  
  ---------------------------------------------------------------------------------------------------------
                                                  Min       Avg       Max     Total     Power    % Time Off
                        Percent   Number of      Flow      Flow      Flow    Volume     Usage    Pump Curve
  Pump                 Utilized   Start-Ups       CMS       CMS       CMS  10^6 ltr     Kw-hr    Low   High
  ---------------------------------------------------------------------------------------------------------
  Pump_ChengXi1           88.77         190      0.00      0.17      0.17     3.202     17.91    0.0    0.0
  Pump_ChengXi2           81.83         192      0.00      0.17      0.17     2.951     13.81    0.0    0.0
  Pump_ChengXi3           18.68          47      0.00      0.17      0.17     0.674      4.21    0.0    0.0
  Pump_ChengXi4            2.41           8      0.00      0.17      0.17     0.087      1.58    0.0    0.0
  Pump_LaoDongLu1         95.83           3      0.00      0.03      0.03     0.575      9.74    0.0    0.0
  Pump_LaoDongLu2         86.11           5      0.00      0.03      0.03     0.517      8.88    0.0    0.0
  Pump_LaoDongLu3          1.39           1      0.00      0.03      0.03     0.008      0.13    0.0    0.0
  outfallpump             97.92           8      0.00      0.31      0.45     6.603    117.20    0.0    0.0
  
  
  ***************************
  Link Pollutant Load Summary
  ***************************
  
  ----------------------------------
                                 COD
  Link                            kg
  ----------------------------------
  Link_01146                  32.158
  Link_01147                  41.771
  Link_01148                  51.207
  Link_01149                  59.846
  Link_01150                  69.343
  Link_01151                  63.179
  Link_01152                  53.205
  Link_01274                  11.941
  Link_01275                  23.571
  Link_01276                  50.580
  Link_01292                  16.392
  Link_01294                  71.476
  Link_01295                  81.425
  Link_01296                  91.887
  Link_01297                 119.295
  Link_01298                  12.043
  Link_01299                 141.720
  Link_01300                 151.628
  Link_01301                 161.247
  Link_01302                  11.889
  Link_01312                  15.735
  Link_01313                 239.042
  Link_01314                 245.020
  Link_01315                 251.199
  Link_01316                 257.877
  Link_01317                 266.464
  Link_01318                 277.044
  Link_01319                 287.772
  Link_01320                 333.032
  Link_01323                 200.083
  Link_01324                  14.248
  Link_01325                 223.762
  Link_01326                 233.265
  Link_01327                 168.351
  Link_01328                  15.752
  Link_01329                 188.145
  Link_01330                 192.604
  Link_01331                 197.514
  Link_01332                 149.111
  Link_01333                  13.542
  Link_01334                 171.259
  Link_01335                  16.610
  Link_01336                 196.499
  Link_01337                 116.160
  Link_01338                  14.366
  Link_01339                  99.213
  Link_01340                  11.860
  Link_01341                  98.214
  Link_01342                  13.438
  Link_01343                 115.267
  Link_01344                  23.630
  Link_01345                 139.940
  Link_01346                 148.722
  Link_01347                  24.145
  Link_01348                 155.695
  Link_01349                  22.599
  Link_01350                 163.581
  Link_01351                  14.875
  Link_01352                 178.582
  Link_01556                  14.043
  Link_01557                  25.676
  Link_01558                1450.343
  Link_01559                  37.187
  Link_01560                1440.019
  Link_01561                1487.588
  Link_01562                1499.335
  Link_01563                1509.341
  Link_01564                  10.273
  Link_01565                 147.428
  Link_01566                  10.957
  Link_01567                  13.791
  Link_01568                 166.962
  Link_01569                  21.303
  Link_01570                 183.376
  Link_01571                 171.839
  Link_01572                 225.100
  Link_01573                 118.026
  Link_01574                 107.466
  Link_01575                  15.452
  Link_01576                  82.247
  Link_01577                  57.647
  Link_01578                  45.574
  Link_01579                  14.389
  Link_01580                   6.580
  Link_01581                   9.654
  Link_01582                   6.577
  Link_01731                  22.918
  Link_01732                  35.757
  Link_01733                  47.834
  Link_01734                  13.829
  Link_01735                  18.884
  Link_01751                  97.671
  Link_01752                 105.215
  Link_01753                 124.633
  Link_01754                 132.963
  Link_01755                 141.708
  Link_01756                  11.925
  Link_01757                 177.465
  Link_01758                  13.128
  Link_01759                  13.210
  Link_01760                 201.001
  Link_01761                 207.335
  Link_01762                 214.412
  Link_01763                  13.278
  Link_01764                 230.001
  Link_01765                 237.219
  Link_01766                 237.008
  Link_01767                 348.941
  Link_01768                 348.875
  Link_01769                 348.869
  Link_01770                 347.687
  Link_01771                 347.496
  Link_01772                  35.657
  Link_01773                 356.595
  Link_01774                  35.216
  Link_01775                 159.055
  Link_01776                 145.631
  Link_01777                 135.691
  Link_01778                 184.297
  Link_01779                 105.350
  Link_01780                 175.462
  Link_01781                  55.854
  Link_01782                 368.291
  Link_01783                  13.526
  Link_01784                 370.886
  Link_01785                 373.602
  Link_01786                  63.092
  Link_01787                  34.972
  Link_01788                 422.121
  Link_01789                 423.764
  Link_01790                  20.649
  Link_01791                  22.975
  Link_01792                  18.207
  Link_01793                 433.320
  Link_01794                 434.289
  Link_01795                 435.214
  Link_01796                 436.787
  Link_01797                 437.110
  Link_01798                 995.127
  Link_01799                 986.830
  Link_01800                1003.965
  Link_01801                 439.204
  Link_01802                 939.034
  Link_01803                 977.825
  Link_01804                 823.764
  Link_01805                 813.843
  Link_01806                 804.274
  Link_01807                 793.408
  Link_01808                  17.558
  Link_01809                 770.518
  Link_01810                 752.756
  Link_01811                  10.336
  Link_01812                  55.317
  Link_01813                  45.704
  Link_01814                 723.491
  Link_01815                 717.873
  Link_01816                 705.245
  Link_01817                  12.177
  Link_01818                 680.939
  Link_01819                 655.937
  Link_01820                  22.618
  Link_01821                  28.324
  Link_01822                   6.556
  Link_01823                 222.162
  Link_01824                 218.751
  Link_01825                  59.108
  Link_01826                  62.285
  Link_01827                   3.034
  Link_01828                  68.547
  Link_01829                   6.538
  Link_01830                  78.365
  Link_01831                   3.034
  Link_01832                  84.642
  Link_01833                  87.826
  Link_01834                  94.197
  Link_01835                   3.034
  Link_01836                  47.506
  Link_01837                  20.903
  Link_01838                  33.810
  Link_01839                  44.232
  Link_01840                  41.160
  Link_01841                  38.086
  Link_01842                  30.210
  Link_01843                  23.973
  Link_01844                  20.895
  Link_02074                  14.192
  Link_02075                 170.209
  Link_02076                 187.138
  Link_02077                  25.556
  Link_02078                 213.237
  Link_02079                  15.876
  Link_02080                 236.925
  Link_02081                 246.070
  Link_02082                 255.316
  Link_02083                  15.581
  Link_02084                  14.513
  Link_02085                 438.425
  Link_02086                 433.506
  Link_02087                 434.531
  Link_02088                 435.340
  Link_02089                 436.781
  Link_02090                 615.564
  Link_02091                 607.158
  Link_02092                 599.038
  Link_02093                  13.366
  Link_02094                 570.562
  Link_02095                 562.696
  Link_02096                 564.074
  Link_02097                  20.739
  Link_02098                  55.069
  Link_02099                 556.538
  Link_02100                 549.342
  Link_02101                  32.749
  Link_02102                 534.859
  Link_02103                 507.876
  Link_02104                  29.732
  Link_02105                 424.446
  Link_02106                  18.186
  Link_02107                  10.651
  Link_02108                 408.650
  Link_02109                 397.573
  Link_02110                 323.311
  Link_02111                 212.135
  Link_02112                  19.199
  Link_02113                 154.852
  Link_02114                  45.906
  Link_02115                  42.725
  Link_02116                  39.613
  Link_02117                  36.560
  Link_02118                  33.474
  Link_02123                   6.578
  Link_02124                   9.642
  Link_02125                  12.712
  Link_02126                  15.713
  Link_02127                  30.370
  Link_02128                  27.282
  Link_02129                  24.233
  Link_02130                  21.183
  Link_02131                  18.090
  Link_02132                  14.995
  Link_02133                  11.904
  Link_02134                 158.069
  Link_02135                 161.286
  Link_02136                 171.075
  Link_02137                   6.573
  Link_02138                 196.899
  Link_02139                 193.681
  Link_02140                 190.396
  Link_02141                 187.293
  Link_02142                 183.947
  Link_02143                 174.265
  Link_02383                  10.532
  Link_02384                  16.648
  Link_02385                  25.526
  Link_02386                  28.138
  Link_02387                  62.886
  Link_02388                  70.917
  Link_02389                  26.970
  Link_02390                  79.585
  Link_02391                 114.269
  Link_02392                  40.777
  Link_02393                 161.502
  Link_05459                  89.609
  Link_05460                 194.994
  Link_05461                 234.601
  Link_05462                 368.265
  Link_05463                 432.919
  Link_05464                  37.107
  Link_05496                1427.080
  Link_05662                  61.230
  Link_05663                  12.230
  Link_05664                  51.776
  Link_05665                 343.470
  Link_05677                 215.338
  Link_05678                  20.312
  Link_05720                 928.885
  Link_05721                 741.773
  Link_05722                  19.420
  Link_05723                 105.722
  Link_05725                  18.829
  Link_05726                 439.449
  Link_05727                  11.806
  Link_05728                 578.433
  Link_05729                 543.333
  Link_05730                 319.957
  Link_05731                 215.220
  Link_05732                 208.997
  Link_05742                  28.267
  Link_05743                 145.070
  Link_05744                 265.004
  Link_05752                 325.008
  Link_05753                   4.811
  Link_05754                  27.073
  Link_05791                   6.550
  Link_05812                 201.927
  Link_05813                 131.208
  Link_05814                 138.999
  Link_05815                 174.872
  Link_05816                  22.379
  Link_05817                  32.108
  Link_05818                  11.878
  Link_05983                  33.176
  Link_05984                  22.838
  Link_06039                   3.030
  Link_07220                 154.517
  Link_07221                 166.173
  Link_07222                 159.645
  Link_07230                 169.649
  Link_07231                 179.976
  Link_07233                 356.648
  Link_07234                 367.046
  Link_07235                 168.622
  Link_07270                  38.825
  Link_07271                  60.776
  Link_07274                  22.831
  Link_07277                  84.355
  Link_07278                 101.640
  Link_07295                  99.957
  Link_07296                 114.045
  Link_07297                 143.645
  Link_07303                  14.500
  Link_07306                  50.047
  Link_07321                  11.911
  Link_07464                  24.817
  Link_07578                  27.536
  Link_07579                 499.135
  Link_07580                 463.481
  Link_07687                  22.078
  Link_07865                  11.877
  Link_08891                  15.720
  Link_08912                  36.933
  Link1_to_ChengXi          1519.779
  Link2_to_ChengXi           355.953
  Link3_to_ChengXi           376.047
  Link_to_LaoDongLu          326.515
  Pump_ChengXi1             1049.236
  Pump_ChengXi2              924.749
  Pump_ChengXi3              212.673
  Pump_ChengXi4               48.017
  Pump_LaoDongLu1            206.232
  Pump_LaoDongLu2            176.181
  Pump_LaoDongLu3              4.612
  outfallpump               2070.245
  

  Analysis begun on:  Sat Sep  4 22:59:50 2021
  Analysis ended on:  Sat Sep  4 22:59:52 2021
  Total elapsed time: 00:00:02