
  EPA STORM WATER MANAGEMENT MODEL - VERSION 5.1 (Build 5.3.0.dev0)
  --------------------------------------------------------------

  WARNING 04: minimum elevation drop used for Conduit Link_01776
  WARNING 04: minimum elevation drop used for Conduit Link_01779
  WARNING 04: minimum elevation drop used for Conduit Link_07234
  WARNING 02: maximum depth increased for Node Node_06087
  
  *********************************************************
  NOTE: The summary statistics displayed in this report are
  based on results found at every computational time step,  
  not just on results from each reporting time step.
  *********************************************************
  
  ****************
  Analysis Options
  ****************
  Flow Units ............... CMS
  Process Models:
    Rainfall/Runoff ........ YES
    RDII ................... NO
    Snowmelt ............... NO
    Groundwater ............ NO
    Flow Routing ........... YES
    Ponding Allowed ........ YES
    Water Quality .......... YES
  Infiltration Method ...... HORTON
  Flow Routing Method ...... DYNWAVE
  Surcharge Method ......... EXTRAN
  Starting Date ............ 01/02/2011 00:00:00
  Ending Date .............. 01/02/2011 06:00:00
  Antecedent Dry Days ...... 0.0
  Report Time Step ......... 00:15:00
  Wet Time Step ............ 00:05:00
  Dry Time Step ............ 01:00:00
  Routing Time Step ........ 60.00 sec
  Variable Time Step ....... YES
  Maximum Trials ........... 8
  Number of Threads ........ 1
  Head Tolerance ........... 0.001500 m
  
  
  **************************        Volume         Depth
  Runoff Quantity Continuity     hectare-m            mm
  **************************     ---------       -------
  Total Precipitation ......         0.529        18.500
  Evaporation Loss .........         0.000         0.000
  Infiltration Loss ........         0.051         1.770
  Surface Runoff ...........         0.482        16.869
  Final Storage ............         0.000         0.009
  Continuity Error (%) .....        -0.803
  
  
  **************************           COD
  Runoff Quality Continuity             kg
  **************************    ----------
  Initial Buildup ..........         0.000
  Surface Buildup ..........         0.000
  Wet Deposition ...........      1391.541
  Sweeping Removal .........         0.000
  Infiltration Loss ........       133.173
  BMP Removal ..............         0.000
  Surface Runoff ...........      1268.831
  Remaining Buildup ........         0.706
  Continuity Error (%) .....        -0.803
  
  
  **************************        Volume        Volume
  Flow Routing Continuity        hectare-m      10^6 ltr
  **************************     ---------     ---------
  Dry Weather Inflow .......         0.153         1.529
  Wet Weather Inflow .......         0.482         4.824
  Groundwater Inflow .......         0.000         0.000
  RDII Inflow ..............         0.000         0.000
  External Inflow ..........         0.000         0.000
  External Outflow .........         0.680         6.801
  Flooding Loss ............         0.017         0.170
  Evaporation Loss .........         0.000         0.000
  Exfiltration Loss ........         0.000         0.000
  Initial Stored Volume ....         0.077         0.773
  Final Stored Volume ......         0.033         0.330
  Continuity Error (%) .....        -2.452
  
  
  **************************           COD
  Quality Routing Continuity            kg
  **************************    ----------
  Dry Weather Inflow .......       845.606
  Wet Weather Inflow .......      1268.810
  Groundwater Inflow .......         0.000
  RDII Inflow ..............         0.000
  External Inflow ..........         0.000
  External Outflow .........      2239.667
  Flooding Loss ............        49.750
  Exfiltration Loss ........         0.000
  Mass Reacted .............         0.000
  Initial Stored Mass ......       427.257
  Final Stored Mass ........       121.793
  Continuity Error (%) .....         5.133
  
  
  *************************
  Highest Continuity Errors
  *************************
  Node Tank_LaoDongLu (-21.10%)
  Node Node_04563 (1.00%)
  
  
  ***************************
  Time-Step Critical Elements
  ***************************
  Link Link_01778 (94.58%)
  Link Link_01558 (1.83%)
  Link Link_01769 (1.46%)
  
  
  ********************************
  Highest Flow Instability Indexes
  ********************************
  Link Link_01336 (59)
  Link Link_01335 (57)
  Link Link_01323 (56)
  Link Link_01324 (54)
  Link Link_01325 (53)
  
  
  *************************
  Routing Time Step Summary
  *************************
  Minimum Time Step           :     5.00 sec
  Average Time Step           :     5.00 sec
  Maximum Time Step           :     5.00 sec
  Percent in Steady State     :     0.00
  Average Iterations per Step :     5.22
  Percent Not Converging      :    20.93
  
  
  ***************************
  Subcatchment Runoff Summary
  ***************************
  
  ------------------------------------------------------------------------------------------------------------------------------
                            Total      Total      Total      Total     Imperv       Perv      Total       Total     Peak  Runoff
                           Precip      Runon       Evap      Infil     Runoff     Runoff     Runoff      Runoff   Runoff   Coeff
  Subcatchment                 mm         mm         mm         mm         mm         mm         mm    10^6 ltr      CMS
  ------------------------------------------------------------------------------------------------------------------------------
  2707                      18.50       0.00       0.00       1.78       4.63      12.23      16.86        0.02     0.00   0.911
  2708                      18.50       0.00       0.00       1.78       4.63      12.23      16.86        0.02     0.00   0.911
  2709                      18.50       0.00       0.00       1.78       4.63      12.23      16.86        0.02     0.00   0.911
  2710                      18.50       0.00       0.00       1.78       4.63      12.23      16.86        0.02     0.00   0.911
  2712                      18.50       0.00       0.00       1.78       4.63      12.23      16.86        0.02     0.00   0.911
  2713                      18.50       0.00       0.00       1.78       4.63      12.23      16.86        0.02     0.00   0.911
  2714                      18.50       0.00       0.00       1.78       4.63      12.23      16.86        0.02     0.00   0.911
  2715                      18.50       0.00       0.00       1.78       4.63      12.23      16.86        0.02     0.00   0.911
  2716                      18.50       0.00       0.00       1.78       4.63      12.23      16.86        0.02     0.00   0.911
  2717                      18.50       0.00       0.00       1.78       4.63      12.23      16.86        0.02     0.00   0.911
  2718                      18.50       0.00       0.00       1.78       4.63      12.23      16.86        0.02     0.00   0.911
  2719                      18.50       0.00       0.00       1.78       4.63      12.23      16.86        0.02     0.00   0.911
  2721                      18.50       0.00       0.00       1.78       4.63      12.23      16.86        0.02     0.00   0.911
  2722                      18.50       0.00       0.00       1.78       4.63      12.23      16.86        0.02     0.00   0.911
  2723                      18.50       0.00       0.00       1.78       4.63      12.23      16.86        0.02     0.00   0.911
  2724                      18.50       0.00       0.00       1.78       4.63      12.23      16.86        0.02     0.00   0.911
  2725                      18.50       0.00       0.00       1.78       4.63      12.23      16.86        0.02     0.00   0.911
  2726                      18.50       0.00       0.00       1.78       4.63      12.23      16.86        0.02     0.00   0.911
  2727                      18.50       0.00       0.00       1.78       4.63      12.23      16.86        0.02     0.00   0.911
  2728                      18.50       0.00       0.00       1.78       4.63      12.23      16.86        0.02     0.00   0.911
  2729                      18.50       0.00       0.00       1.78       4.63      12.23      16.86        0.02     0.00   0.911
  2730                      18.50       0.00       0.00       1.78       4.63      12.23      16.86        0.02     0.00   0.911
  2731                      18.50       0.00       0.00       1.78       4.63      12.23      16.86        0.02     0.00   0.911
  2732                      18.50       0.00       0.00       1.78       4.63      12.23      16.86        0.02     0.00   0.911
  2733                      18.50       0.00       0.00       1.78       4.63      12.23      16.86        0.02     0.00   0.911
  2734                      18.50       0.00       0.00       1.78       4.63      12.23      16.86        0.02     0.00   0.911
  2735                      18.50       0.00       0.00       1.78       4.63      12.23      16.86        0.02     0.00   0.911
  2736                      18.50       0.00       0.00       1.78       4.63      12.23      16.86        0.02     0.00   0.911
  2737                      18.50       0.00       0.00       1.78       4.63      12.23      16.86        0.02     0.00   0.911
  2738                      18.50       0.00       0.00       1.78       4.63      12.23      16.86        0.02     0.00   0.911
  2739                      18.50       0.00       0.00       1.78       4.63      12.23      16.86        0.02     0.00   0.911
  2740                      18.50       0.00       0.00       1.78       4.63      12.23      16.86        0.02     0.00   0.911
  2741                      18.50       0.00       0.00       1.78       4.63      12.23      16.86        0.02     0.00   0.911
  2742                      18.50       0.00       0.00       1.78       4.63      12.23      16.86        0.02     0.00   0.911
  2743                      18.50       0.00       0.00       1.78       4.63      12.23      16.86        0.02     0.00   0.911
  2744                      18.50       0.00       0.00       1.78       4.63      12.23      16.86        0.02     0.00   0.911
  2745                      18.50       0.00       0.00       1.78       4.63      12.23      16.86        0.02     0.00   0.911
  2746                      18.50       0.00       0.00       1.78       4.63      12.23      16.86        0.02     0.00   0.911
  2747                      18.50       0.00       0.00       1.78       4.63      12.23      16.86        0.02     0.00   0.911
  2748                      18.50       0.00       0.00       1.78       4.63      12.23      16.86        0.02     0.00   0.911
  2749                      18.50       0.00       0.00       1.78       4.63      12.23      16.86        0.02     0.00   0.911
  2750                      18.50       0.00       0.00       1.78       4.63      12.23      16.86        0.02     0.00   0.911
  2751                      18.50       0.00       0.00       1.78       4.63      12.23      16.86        0.02     0.00   0.911
  2752                      18.50       0.00       0.00       1.78       4.63      12.23      16.86        0.02     0.00   0.911
  2753                      18.50       0.00       0.00       1.78       4.63      12.23      16.86        0.02     0.00   0.911
  2754                      18.50       0.00       0.00       1.78       4.63      12.23      16.86        0.02     0.00   0.911
  2755                      18.50       0.00       0.00       1.78       4.63      12.23      16.86        0.02     0.00   0.911
  2756                      18.50       0.00       0.00       1.78       4.63      12.23      16.86        0.02     0.00   0.911
  2964                      18.50       0.00       0.00       1.78       4.63      12.23      16.86        0.02     0.00   0.911
  2969                      18.50       0.00       0.00       1.78       4.63      12.23      16.86        0.02     0.00   0.911
  2970                      18.50       0.00       0.00       1.78       4.63      12.23      16.86        0.02     0.00   0.911
  2974                      18.50       0.00       0.00       1.78       4.63      12.23      16.86        0.02     0.00   0.911
  2975                      18.50       0.00       0.00       1.78       4.63      12.23      16.86        0.02     0.00   0.911
  2976                      18.50       0.00       0.00       1.78       4.63      12.23      16.86        0.02     0.00   0.911
  2977                      18.50       0.00       0.00       1.78       4.63      12.23      16.86        0.02     0.00   0.911
  2978                      18.50       0.00       0.00       1.78       4.63      12.23      16.86        0.02     0.00   0.911
  2979                      18.50       0.00       0.00       1.78       4.63      12.23      16.86        0.02     0.00   0.911
  2980                      18.50       0.00       0.00       1.78       4.63      12.23      16.86        0.02     0.00   0.911
  2981                      18.50       0.00       0.00       1.78       4.63      12.23      16.86        0.02     0.00   0.911
  2982                      18.50       0.00       0.00       1.78       4.63      12.23      16.86        0.02     0.00   0.911
  2984                      18.50       0.00       0.00       1.78       4.63      12.23      16.86        0.02     0.00   0.911
  2985                      18.50       0.00       0.00       1.78       4.63      12.23      16.86        0.02     0.00   0.911
  3925                      18.50       0.00       0.00       1.78       4.63      12.23      16.86        0.02     0.00   0.911
  3926                      18.50       0.00       0.00       1.78       4.63      12.23      16.86        0.02     0.00   0.911
  3927                      18.50       0.00       0.00       1.78       4.63      12.23      16.86        0.02     0.00   0.911
  3928                      18.50       0.00       0.00       1.78       4.63      12.23      16.86        0.02     0.00   0.911
  3929                      18.50       0.00       0.00       1.78       4.63      12.23      16.86        0.02     0.00   0.911
  3930                      18.50       0.00       0.00       1.78       4.63      12.23      16.86        0.02     0.00   0.911
  3931                      18.50       0.00       0.00       1.78       4.63      12.23      16.86        0.02     0.00   0.911
  3932                      18.50       0.00       0.00       1.78       4.63      12.23      16.86        0.02     0.00   0.911
  3933                      18.50       0.00       0.00       1.78       4.63      12.23      16.86        0.02     0.00   0.911
  3934                      18.50       0.00       0.00       1.78       4.63      12.23      16.86        0.02     0.00   0.911
  3935                      18.50       0.00       0.00       1.78       4.63      12.23      16.86        0.02     0.00   0.911
  3936                      18.50       0.00       0.00       1.78       4.63      12.23      16.86        0.02     0.00   0.911
  3937                      18.50       0.00       0.00       1.78       4.63      12.23      16.86        0.02     0.00   0.911
  3938                      18.50       0.00       0.00       1.78       4.63      12.23      16.86        0.02     0.00   0.911
  3939                      18.50       0.00       0.00       1.78       4.63      12.23      16.86        0.02     0.00   0.911
  3940                      18.50       0.00       0.00       1.78       4.63      12.23      16.86        0.02     0.00   0.911
  3941                      18.50       0.00       0.00       1.78       4.63      12.23      16.86        0.02     0.00   0.911
  3942                      18.50       0.00       0.00       1.78       4.63      12.23      16.86        0.02     0.00   0.911
  3943                      18.50       0.00       0.00       1.78       4.63      12.23      16.86        0.02     0.00   0.911
  3944                      18.50       0.00       0.00       1.78       4.63      12.23      16.86        0.02     0.00   0.911
  3945                      18.50       0.00       0.00       1.78       4.63      12.23      16.86        0.02     0.00   0.911
  3946                      18.50       0.00       0.00       1.78       4.63      12.23      16.86        0.02     0.00   0.911
  3947                      18.50       0.00       0.00       1.78       4.63      12.23      16.86        0.02     0.00   0.911
  3948                      18.50       0.00       0.00       1.78       4.63      12.23      16.86        0.02     0.00   0.911
  3949                      18.50       0.00       0.00       1.78       4.63      12.23      16.86        0.02     0.00   0.911
  3950                      18.50       0.00       0.00       1.78       4.63      12.23      16.86        0.02     0.00   0.911
  3951                      18.50       0.00       0.00       1.78       4.63      12.23      16.86        0.02     0.00   0.911
  3952                      18.50       0.00       0.00       1.78       4.63      12.23      16.86        0.02     0.00   0.911
  3953                      18.50       0.00       0.00       1.78       4.63      12.23      16.86        0.02     0.00   0.911
  3954                      18.50       0.00       0.00       1.78       4.63      12.23      16.86        0.02     0.00   0.911
  3955                      18.50       0.00       0.00       1.78       4.63      12.23      16.86        0.02     0.00   0.911
  3956                      18.50       0.00       0.00       1.78       4.63      12.23      16.86        0.02     0.00   0.911
  4032                      18.50       0.00       0.00       1.78       4.63      12.23      16.86        0.02     0.00   0.911
  4033                      18.50       0.00       0.00       1.78       4.63      12.23      16.86        0.02     0.00   0.911
  4041                      18.50       0.00       0.00       1.78       4.63      12.23      16.86        0.02     0.00   0.911
  4051                      18.50       0.00       0.00       1.78       4.63      12.23      16.86        0.02     0.00   0.911
  4055                      18.50       0.00       0.00       1.78       4.63      12.23      16.86        0.02     0.00   0.911
  4056                      18.50       0.00       0.00       1.78       4.63      12.23      16.86        0.02     0.00   0.911
  4058                      18.50       0.00       0.00       1.78       4.63      12.23      16.86        0.02     0.00   0.911
  4385                      18.50       0.00       0.00       1.78       4.63      12.23      16.86        0.02     0.00   0.911
  4386                      18.50       0.00       0.00       1.78       4.63      12.23      16.86        0.02     0.00   0.911
  4387                      18.50       0.00       0.00       1.78       4.63      12.23      16.86        0.02     0.00   0.911
  4388                      18.50       0.00       0.00       1.78       4.63      12.23      16.86        0.02     0.00   0.911
  4389                      18.50       0.00       0.00       1.78       4.63      12.23      16.86        0.02     0.00   0.911
  4390                      18.50       0.00       0.00       1.78       4.63      12.23      16.86        0.02     0.00   0.911
  4391                      18.50       0.00       0.00       1.78       4.63      12.23      16.86        0.02     0.00   0.911
  4392                      18.50       0.00       0.00       1.78       4.63      12.23      16.86        0.02     0.00   0.911
  4393                      18.50       0.00       0.00       1.78       4.63      12.23      16.86        0.02     0.00   0.911
  4394                      18.50       0.00       0.00       1.78       4.63      12.23      16.86        0.02     0.00   0.911
  4395                      18.50       0.00       0.00       1.78       4.63      12.23      16.86        0.02     0.00   0.911
  4396                      18.50       0.00       0.00       1.78       4.63      12.23      16.86        0.02     0.00   0.911
  4397                      18.50       0.00       0.00       1.78       4.63      12.23      16.86        0.02     0.00   0.911
  4398                      18.50       0.00       0.00       1.78       4.63      12.23      16.86        0.02     0.00   0.911
  4429                      18.50       0.00       0.00       1.78       4.63      12.23      16.86        0.02     0.00   0.911
  4430                      18.50       0.00       0.00       1.78       4.63      12.23      16.86        0.02     0.00   0.911
  4431                      18.50       0.00       0.00       1.78       4.63      12.23      16.86        0.02     0.00   0.911
  4432                      18.50       0.00       0.00       1.78       4.63      12.23      16.86        0.02     0.00   0.911
  4433                      18.50       0.00       0.00       1.78       4.63      12.23      16.86        0.02     0.00   0.911
  4434                      18.50       0.00       0.00       1.78       4.63      12.23      16.86        0.02     0.00   0.911
  4435                      18.50       0.00       0.00       1.78       4.63      12.23      16.86        0.02     0.00   0.911
  4436                      18.50       0.00       0.00       1.78       4.63      12.23      16.86        0.02     0.00   0.911
  4437                      18.50       0.00       0.00       1.78       4.63      12.23      16.86        0.02     0.00   0.911
  4438                      18.50       0.00       0.00       1.78       4.63      12.23      16.86        0.02     0.00   0.911
  4439                      18.50       0.00       0.00       1.78       4.63      12.23      16.86        0.02     0.00   0.911
  4440                      18.50       0.00       0.00       1.78       4.63      12.23      16.86        0.02     0.00   0.911
  4441                      18.50       0.00       0.00       1.78       4.63      12.23      16.86        0.02     0.00   0.911
  4442                      18.50       0.00       0.00       1.78       4.63      12.23      16.86        0.02     0.00   0.911
  4443                      18.50       0.00       0.00       1.78       4.63      12.23      16.86        0.02     0.00   0.911
  4444                      18.50       0.00       0.00       1.78       4.63      12.23      16.86        0.02     0.00   0.911
  4445                      18.50       0.00       0.00       1.78       4.63      12.23      16.86        0.02     0.00   0.911
  4446                      18.50       0.00       0.00       1.78       4.63      12.23      16.86        0.02     0.00   0.911
  4447                      18.50       0.00       0.00       1.78       4.63      12.23      16.86        0.02     0.00   0.911
  4448                      18.50       0.00       0.00       1.78       4.63      12.23      16.86        0.02     0.00   0.911
  4449                      18.50       0.00       0.00       1.78       4.63      12.23      16.86        0.02     0.00   0.911
  4450                      18.50       0.00       0.00       1.78       4.63      12.23      16.86        0.02     0.00   0.911
  4451                      18.50       0.00       0.00       1.78       4.63      12.23      16.86        0.02     0.00   0.911
  4452                      18.50       0.00       0.00       1.78       4.63      12.23      16.86        0.02     0.00   0.911
  4453                      18.50       0.00       0.00       1.78       4.63      12.23      16.86        0.02     0.00   0.911
  4454                      18.50       0.00       0.00       1.78       4.63      12.23      16.86        0.02     0.00   0.911
  4462                      18.50       0.00       0.00       1.78       4.63      12.23      16.86        0.02     0.00   0.911
  4463                      18.50       0.00       0.00       1.78       4.63      12.23      16.86        0.02     0.00   0.911
  4563                      18.50       0.00       0.00       1.78       4.63      12.23      16.86        0.02     0.00   0.911
  4564                      18.50       0.00       0.00       1.78       4.63      12.23      16.86        0.02     0.00   0.911
  4565                      18.50       0.00       0.00       1.78       4.63      12.23      16.86        0.02     0.00   0.911
  4566                      18.50       0.00       0.00       1.78       4.63      12.23      16.86        0.02     0.00   0.911
  4567                      18.50       0.00       0.00       1.78       4.63      12.23      16.86        0.02     0.00   0.911
  4568                      18.50       0.00       0.00       1.78       4.63      12.23      16.86        0.02     0.00   0.911
  4569                      18.50       0.00       0.00       1.78       4.63      12.23      16.86        0.02     0.00   0.911
  4570                      18.50       0.00       0.00       1.78       4.63      12.23      16.86        0.02     0.00   0.911
  4571                      18.50       0.00       0.00       1.78       4.63      12.23      16.86        0.02     0.00   0.911
  4572                      18.50       0.00       0.00       1.78       4.63      12.23      16.86        0.02     0.00   0.911
  4573                      18.50       0.00       0.00       1.78       4.63      12.23      16.86        0.02     0.00   0.911
  4574                      18.50       0.00       0.00       1.78       4.63      12.23      16.86        0.02     0.00   0.911
  4575                      18.50       0.00       0.00       1.78       4.63      12.23      16.86        0.02     0.00   0.911
  4576                      18.50       0.00       0.00       1.78       4.63      12.23      16.86        0.02     0.00   0.911
  4577                      18.50       0.00       0.00       1.78       4.63      12.23      16.86        0.02     0.00   0.911
  4578                      18.50       0.00       0.00       1.78       4.63      12.23      16.86        0.02     0.00   0.911
  4579                      18.50       0.00       0.00       1.78       4.63      12.23      16.86        0.02     0.00   0.911
  4580                      18.50       0.00       0.00       1.78       4.63      12.23      16.86        0.02     0.00   0.911
  4581                      18.50       0.00       0.00       1.78       4.63      12.23      16.86        0.02     0.00   0.911
  4624                      18.50       0.00       0.00       1.78       4.63      12.23      16.86        0.02     0.00   0.911
  4625                      18.50       0.00       0.00       1.78       4.63      12.23      16.86        0.02     0.00   0.911
  4644                      18.50       0.00       0.00       1.78       4.63      12.23      16.86        0.02     0.00   0.911
  4645                      18.50       0.00       0.00       1.78       4.63      12.23      16.86        0.02     0.00   0.911
  4646                      18.50       0.00       0.00       1.78       4.63      12.23      16.86        0.02     0.00   0.911
  4679                      18.50       0.00       0.00       1.78       4.63      12.23      16.86        0.02     0.00   0.911
  4680                      18.50       0.00       0.00       1.78       4.63      12.23      16.86        0.02     0.00   0.911
  4681                      18.50       0.00       0.00       1.78       4.63      12.23      16.86        0.02     0.00   0.911
  4682                      18.50       0.00       0.00       1.78       4.63      12.23      16.86        0.02     0.00   0.911
  4683                      18.50       0.00       0.00       1.78       4.63      12.23      16.86        0.02     0.00   0.911
  4711                      18.50       0.00       0.00       1.78       4.63      12.23      16.86        0.02     0.00   0.911
  4712                      18.50       0.00       0.00       1.78       4.63      12.23      16.86        0.02     0.00   0.911
  4713                      18.50       0.00       0.00       1.78       4.63      12.23      16.86        0.02     0.00   0.911
  4714                      18.50       0.00       0.00       1.78       4.63      12.23      16.86        0.02     0.00   0.911
  4715                      18.50       0.00       0.00       1.78       4.63      12.23      16.86        0.02     0.00   0.911
  4716                      18.50       0.00       0.00       1.78       4.63      12.23      16.86        0.02     0.00   0.911
  4717                      18.50       0.00       0.00       1.78       4.63      12.23      16.86        0.02     0.00   0.911
  4718                      18.50       0.00       0.00       1.78       4.63      12.23      16.86        0.02     0.00   0.911
  4722                      18.50       0.00       0.00       1.78       4.63      12.23      16.86        0.02     0.00   0.911
  4760                      18.50       0.00       0.00       1.78       4.63      12.23      16.86        0.02     0.00   0.911
  4761                      18.50       0.00       0.00       1.78       4.63      12.23      16.86        0.02     0.00   0.911
  4765                      18.50       0.00       0.00       1.78       4.63      12.23      16.86        0.02     0.00   0.911
  4766                      18.50       0.00       0.00       1.78       4.63      12.23      16.86        0.02     0.00   0.911
  4767                      18.50       0.00       0.00       1.78       4.63      12.23      16.86        0.02     0.00   0.911
  4768                      18.50       0.00       0.00       1.78       4.63      12.23      16.86        0.02     0.00   0.911
  4769                      18.50       0.00       0.00       1.78       4.63      12.23      16.86        0.02     0.00   0.911
  4855                      18.50       0.00       0.00       1.78       4.63      12.23      16.86        0.02     0.00   0.911
  4856                      18.50       0.00       0.00       1.78       4.63      12.23      16.86        0.02     0.00   0.911
  5284                      18.50       0.00       0.00       1.78       4.63      12.23      16.86        0.02     0.00   0.911
  5285                      18.50       0.00       0.00       1.78       4.63      12.23      16.86        0.02     0.00   0.911
  5286                      18.50       0.00       0.00       1.78       4.63      12.23      16.86        0.02     0.00   0.911
  5287                      18.50       0.00       0.00       1.78       4.63      12.23      16.86        0.02     0.00   0.911
  5288                      18.50       0.00       0.00       1.78       4.63      12.23      16.86        0.02     0.00   0.911
  5289                      18.50       0.00       0.00       1.78       4.63      12.23      16.86        0.02     0.00   0.911
  5290                      18.50       0.00       0.00       1.78       4.63      12.23      16.86        0.02     0.00   0.911
  5291                      18.50       0.00       0.00       1.78       4.63      12.23      16.86        0.02     0.00   0.911
  5292                      18.50       0.00       0.00       1.78       4.63      12.23      16.86        0.02     0.00   0.911
  5293                      18.50       0.00       0.00       1.78       4.63      12.23      16.86        0.02     0.00   0.911
  5294                      18.50       0.00       0.00       1.78       4.63      12.23      16.86        0.02     0.00   0.911
  5295                      18.50       0.00       0.00       1.78       4.63      12.23      16.86        0.02     0.00   0.911
  5296                      18.50       0.00       0.00       1.78       4.63      12.23      16.86        0.02     0.00   0.911
  5297                      18.50       0.00       0.00       1.78       4.63      12.23      16.86        0.02     0.00   0.911
  5298                      18.50       0.00       0.00       1.78       4.63      12.23      16.86        0.02     0.00   0.911
  5299                      18.50       0.00       0.00       1.78       4.63      12.23      16.86        0.02     0.00   0.911
  5300                      18.50       0.00       0.00       1.78       4.63      12.23      16.86        0.02     0.00   0.911
  5301                      18.50       0.00       0.00       1.78       4.63      12.23      16.86        0.02     0.00   0.911
  5302                      18.50       0.00       0.00       1.78       4.63      12.23      16.86        0.02     0.00   0.911
  5303                      18.50       0.00       0.00       1.78       4.63      12.23      16.86        0.02     0.00   0.911
  5304                      18.50       0.00       0.00       1.78       4.63      12.23      16.86        0.02     0.00   0.911
  5305                      18.50       0.00       0.00       1.78       4.63      12.23      16.86        0.02     0.00   0.911
  5306                      18.50       0.00       0.00       1.78       4.63      12.23      16.86        0.02     0.00   0.911
  5307                      18.50       0.00       0.00       1.78       4.63      12.23      16.86        0.02     0.00   0.911
  5308                      18.50       0.00       0.00       1.78       4.63      12.23      16.86        0.02     0.00   0.911
  5309                      18.50       0.00       0.00       1.78       4.63      12.23      16.86        0.02     0.00   0.911
  5310                      18.50       0.00       0.00       1.78       4.63      12.23      16.86        0.02     0.00   0.911
  5311                      18.50       0.00       0.00       1.78       4.63      12.23      16.86        0.02     0.00   0.911
  5312                      18.50       0.00       0.00       1.78       4.63      12.23      16.86        0.02     0.00   0.911
  5313                      18.50       0.00       0.00       1.78       4.63      12.23      16.86        0.02     0.00   0.911
  5314                      18.50       0.00       0.00       1.78       4.63      12.23      16.86        0.02     0.00   0.911
  5315                      18.50       0.00       0.00       1.78       4.63      12.23      16.86        0.02     0.00   0.911
  5316                      18.50       0.00       0.00       1.78       4.63      12.23      16.86        0.02     0.00   0.911
  5317                      18.50       0.00       0.00       1.78       4.63      12.23      16.86        0.02     0.00   0.911
  5318                      18.50       0.00       0.00       1.78       4.63      12.23      16.86        0.02     0.00   0.911
  5319                      18.50       0.00       0.00       1.78       4.63      12.23      16.86        0.02     0.00   0.911
  5320                      18.50       0.00       0.00       1.78       4.63      12.23      16.86        0.02     0.00   0.911
  5321                      18.50       0.00       0.00       1.78       4.63      12.23      16.86        0.02     0.00   0.911
  5322                      18.50       0.00       0.00       1.78       4.63      12.23      16.86        0.02     0.00   0.911
  5323                      18.50       0.00       0.00       1.78       4.63      12.23      16.86        0.02     0.00   0.911
  5324                      18.50       0.00       0.00       1.78       4.63      12.23      16.86        0.02     0.00   0.911
  5325                      18.50       0.00       0.00       1.78       4.63      12.23      16.86        0.02     0.00   0.911
  5326                      18.50       0.00       0.00       1.78       4.63      12.23      16.86        0.02     0.00   0.911
  5327                      18.50       0.00       0.00       1.78       4.63      12.23      16.86        0.02     0.00   0.911
  5328                      18.50       0.00       0.00       1.78       4.63      12.23      16.86        0.02     0.00   0.911
  5329                      18.50       0.00       0.00       1.78       4.63      12.23      16.86        0.02     0.00   0.911
  5330                      18.50       0.00       0.00       1.78       4.63      12.23      16.86        0.02     0.00   0.911
  5333                      18.50       0.00       0.00       1.78       4.63      12.23      16.86        0.02     0.00   0.911
  5334                      18.50       0.00       0.00       1.78       4.63      12.23      16.86        0.02     0.00   0.911
  6040                      18.50       0.00       0.00       1.78       4.63      12.23      16.86        0.02     0.00   0.911
  6041                      18.50       0.00       0.00       1.78       4.63      12.23      16.86        0.02     0.00   0.911
  6162                      18.50       0.00       0.00       1.78       4.63      12.23      16.86        0.02     0.00   0.911
  7207                      18.50       0.00       0.00       1.78       4.63      12.23      16.86        0.02     0.00   0.911
  7208                      18.50       0.00       0.00       1.78       4.63      12.23      16.86        0.02     0.00   0.911
  7213                      18.50       0.00       0.00       1.78       4.63      12.23      16.86        0.02     0.00   0.911
  7214                      18.50       0.00       0.00       1.78       4.63      12.23      16.86        0.02     0.00   0.911
  7219                      18.50       0.00       0.00       1.78       4.63      12.23      16.86        0.02     0.00   0.911
  7220                      18.50       0.00       0.00       1.78       4.63      12.23      16.86        0.02     0.00   0.911
  7221                      18.50       0.00       0.00       1.78       4.63      12.23      16.86        0.02     0.00   0.911
  7225                      18.50       0.00       0.00       1.78       4.63      12.23      16.86        0.02     0.00   0.911
  7229                      18.50       0.00       0.00       1.78       4.63      12.23      16.86        0.02     0.00   0.911
  7231                      18.50       0.00       0.00       1.78       4.63      12.23      16.86        0.02     0.00   0.911
  7268                      18.50       0.00       0.00       1.78       4.63      12.23      16.86        0.02     0.00   0.911
  7269                      18.50       0.00       0.00       1.78       4.63      12.23      16.86        0.02     0.00   0.911
  7271                      18.50       0.00       0.00       1.78       4.63      12.23      16.86        0.02     0.00   0.911
  7272                      18.50       0.00       0.00       1.78       4.63      12.23      16.86        0.02     0.00   0.911
  7273                      18.50       0.00       0.00       1.78       4.63      12.23      16.86        0.02     0.00   0.911
  7433                      18.50       0.00       0.00       1.78       4.63      12.23      16.86        0.02     0.00   0.911
  7434                      18.50       0.00       0.00       1.78       4.63      12.23      16.86        0.02     0.00   0.911
  7544                      18.50       0.00       0.00       1.78       4.63      12.23      16.86        0.02     0.00   0.911
  7545                      18.50       0.00       0.00       1.78       4.63      12.23      16.86        0.02     0.00   0.911
  8737                      18.50       0.00       0.00       1.78       4.63      12.23      16.86        0.02     0.00   0.911
  8818                      18.50       0.00       0.00       1.78       4.63      12.23      16.86        0.02     0.00   0.911
  9942                      18.50       0.00       0.00       1.78       4.63      12.23      16.86        0.02     0.00   0.911
  9957                      18.50       0.00       0.00       1.78       4.63      12.23      16.86        0.02     0.00   0.911
  4399                      18.50       0.00       0.00       1.70       4.63      12.33      16.95        0.01     0.00   0.916
  4400                      18.50       0.00       0.00       1.70       4.63      12.33      16.95        0.01     0.00   0.916
  4401                      18.50       0.00       0.00       1.70       4.63      12.33      16.95        0.01     0.00   0.916
  4402                      18.50       0.00       0.00       1.70       4.63      12.33      16.95        0.01     0.00   0.916
  4403                      18.50       0.00       0.00       1.70       4.63      12.33      16.95        0.01     0.00   0.916
  4404                      18.50       0.00       0.00       1.70       4.63      12.33      16.95        0.01     0.00   0.916
  4405                      18.50       0.00       0.00       1.70       4.63      12.33      16.95        0.01     0.00   0.916
  4406                      18.50       0.00       0.00       1.70       4.63      12.33      16.95        0.01     0.00   0.916
  4407                      18.50       0.00       0.00       1.70       4.63      12.33      16.95        0.01     0.00   0.916
  4408                      18.50       0.00       0.00       1.70       4.63      12.33      16.95        0.01     0.00   0.916
  4409                      18.50       0.00       0.00       1.70       4.63      12.33      16.95        0.01     0.00   0.916
  4410                      18.50       0.00       0.00       1.70       4.63      12.33      16.95        0.01     0.00   0.916
  4411                      18.50       0.00       0.00       1.70       4.63      12.33      16.95        0.01     0.00   0.916
  4412                      18.50       0.00       0.00       1.70       4.63      12.33      16.95        0.01     0.00   0.916
  4423                      18.50       0.00       0.00       1.70       4.63      12.33      16.95        0.01     0.00   0.916
  4424                      18.50       0.00       0.00       1.70       4.63      12.33      16.95        0.01     0.00   0.916
  4425                      18.50       0.00       0.00       1.70       4.63      12.33      16.95        0.01     0.00   0.916
  4426                      18.50       0.00       0.00       1.70       4.63      12.33      16.95        0.01     0.00   0.916
  4427                      18.50       0.00       0.00       1.70       4.63      12.33      16.95        0.01     0.00   0.916
  4428                      18.50       0.00       0.00       1.70       4.63      12.33      16.95        0.01     0.00   0.916
  4455                      18.50       0.00       0.00       1.70       4.63      12.33      16.95        0.01     0.00   0.916
  4456                      18.50       0.00       0.00       1.70       4.63      12.33      16.95        0.01     0.00   0.916
  4457                      18.50       0.00       0.00       1.70       4.63      12.33      16.95        0.01     0.00   0.916
  4458                      18.50       0.00       0.00       1.70       4.63      12.33      16.95        0.01     0.00   0.916
  4459                      18.50       0.00       0.00       1.70       4.63      12.33      16.95        0.01     0.00   0.916
  4460                      18.50       0.00       0.00       1.70       4.63      12.33      16.95        0.01     0.00   0.916
  4461                      18.50       0.00       0.00       1.70       4.63      12.33      16.95        0.01     0.00   0.916
  4464                      18.50       0.00       0.00       1.70       4.63      12.33      16.95        0.01     0.00   0.916
  4465                      18.50       0.00       0.00       1.70       4.63      12.33      16.95        0.01     0.00   0.916
  4466                      18.50       0.00       0.00       1.70       4.63      12.33      16.95        0.01     0.00   0.916
  4467                      18.50       0.00       0.00       1.70       4.63      12.33      16.95        0.01     0.00   0.916
  4468                      18.50       0.00       0.00       1.70       4.63      12.33      16.95        0.01     0.00   0.916
  4469                      18.50       0.00       0.00       1.70       4.63      12.33      16.95        0.01     0.00   0.916
  4470                      18.50       0.00       0.00       1.70       4.63      12.33      16.95        0.01     0.00   0.916
  4471                      18.50       0.00       0.00       1.70       4.63      12.33      16.95        0.01     0.00   0.916
  4472                      18.50       0.00       0.00       1.70       4.63      12.33      16.95        0.01     0.00   0.916
  4473                      18.50       0.00       0.00       1.70       4.63      12.33      16.95        0.01     0.00   0.916
  4474                      18.50       0.00       0.00       1.70       4.63      12.33      16.95        0.01     0.00   0.916
  4628                      18.50       0.00       0.00       1.70       4.63      12.33      16.95        0.01     0.00   0.916
  4631                      18.50       0.00       0.00       1.70       4.63      12.33      16.95        0.01     0.00   0.916
  4632                      18.50       0.00       0.00       1.70       4.63      12.33      16.95        0.01     0.00   0.916
  4633                      18.50       0.00       0.00       1.70       4.63      12.33      16.95        0.01     0.00   0.916
  4634                      18.50       0.00       0.00       1.70       4.63      12.33      16.95        0.01     0.00   0.916
  4637                      18.50       0.00       0.00       1.70       4.63      12.33      16.95        0.01     0.00   0.916
  4686                      18.50       0.00       0.00       1.70       4.63      12.33      16.95        0.01     0.00   0.916
  4687                      18.50       0.00       0.00       1.70       4.63      12.33      16.95        0.01     0.00   0.916
  4688                      18.50       0.00       0.00       1.70       4.63      12.33      16.95        0.01     0.00   0.916
  5032                      18.50       0.00       0.00       1.70       4.63      12.33      16.95        0.01     0.00   0.916
  5331                      18.50       0.00       0.00       1.70       4.63      12.33      16.95        0.01     0.00   0.916
  5332                      18.50       0.00       0.00       1.70       4.63      12.33      16.95        0.01     0.00   0.916
  5335                      18.50       0.00       0.00       1.70       4.63      12.33      16.95        0.01     0.00   0.916
  5336                      18.50       0.00       0.00       1.70       4.63      12.33      16.95        0.01     0.00   0.916
  5337                      18.50       0.00       0.00       1.70       4.63      12.33      16.95        0.01     0.00   0.916
  5338                      18.50       0.00       0.00       1.70       4.63      12.33      16.95        0.01     0.00   0.916
  5339                      18.50       0.00       0.00       1.70       4.63      12.33      16.95        0.01     0.00   0.916
  5340                      18.50       0.00       0.00       1.70       4.63      12.33      16.95        0.01     0.00   0.916
  5341                      18.50       0.00       0.00       1.70       4.63      12.33      16.95        0.01     0.00   0.916
  5342                      18.50       0.00       0.00       1.70       4.63      12.33      16.95        0.01     0.00   0.916
  5343                      18.50       0.00       0.00       1.70       4.63      12.33      16.95        0.01     0.00   0.916
  5344                      18.50       0.00       0.00       1.70       4.63      12.33      16.95        0.01     0.00   0.916
  5345                      18.50       0.00       0.00       1.70       4.63      12.33      16.95        0.01     0.00   0.916
  5346                      18.50       0.00       0.00       1.70       4.63      12.33      16.95        0.01     0.00   0.916
  5347                      18.50       0.00       0.00       1.70       4.63      12.33      16.95        0.01     0.00   0.916
  5348                      18.50       0.00       0.00       1.70       4.63      12.33      16.95        0.01     0.00   0.916
  5349                      18.50       0.00       0.00       1.70       4.63      12.33      16.95        0.01     0.00   0.916
  5350                      18.50       0.00       0.00       1.70       4.63      12.33      16.95        0.01     0.00   0.916
  6088                      18.50       0.00       0.00       1.70       4.63      12.33      16.95        0.01     0.00   0.916
  7275                      18.50       0.00       0.00       1.70       4.63      12.33      16.95        0.01     0.00   0.916
  9955                      18.50       0.00       0.00       1.70       4.63      12.33      16.95        0.01     0.00   0.916
  9956                      18.50       0.00       0.00       1.70       4.63      12.33      16.95        0.01     0.00   0.916
  
  
  ****************************
  Subcatchment Washoff Summary
  ****************************
  
  ----------------------------------
                                 COD
  Subcatchment                    kg
  ----------------------------------
  2707                         4.435
  2708                         4.435
  2709                         4.435
  2710                         4.435
  2712                         4.435
  2713                         4.435
  2714                         4.435
  2715                         4.435
  2716                         4.435
  2717                         4.435
  2718                         4.435
  2719                         4.435
  2721                         4.435
  2722                         4.435
  2723                         4.435
  2724                         4.435
  2725                         4.435
  2726                         4.435
  2727                         4.435
  2728                         4.435
  2729                         4.435
  2730                         4.435
  2731                         4.435
  2732                         4.435
  2733                         4.435
  2734                         4.435
  2735                         4.435
  2736                         4.435
  2737                         4.435
  2738                         4.435
  2739                         4.435
  2740                         4.435
  2741                         4.435
  2742                         4.435
  2743                         4.435
  2744                         4.435
  2745                         4.435
  2746                         4.435
  2747                         4.435
  2748                         4.435
  2749                         4.435
  2750                         4.435
  2751                         4.435
  2752                         4.435
  2753                         4.435
  2754                         4.435
  2755                         4.435
  2756                         4.435
  2964                         4.435
  2969                         4.435
  2970                         4.435
  2974                         4.435
  2975                         4.435
  2976                         4.435
  2977                         4.435
  2978                         4.435
  2979                         4.435
  2980                         4.435
  2981                         4.435
  2982                         4.435
  2984                         4.435
  2985                         4.435
  3925                         4.435
  3926                         4.435
  3927                         4.435
  3928                         4.435
  3929                         4.435
  3930                         4.435
  3931                         4.435
  3932                         4.435
  3933                         4.435
  3934                         4.435
  3935                         4.435
  3936                         4.435
  3937                         4.435
  3938                         4.435
  3939                         4.435
  3940                         4.435
  3941                         4.435
  3942                         4.435
  3943                         4.435
  3944                         4.435
  3945                         4.435
  3946                         4.435
  3947                         4.435
  3948                         4.435
  3949                         4.435
  3950                         4.435
  3951                         4.435
  3952                         4.435
  3953                         4.435
  3954                         4.435
  3955                         4.435
  3956                         4.435
  4032                         4.435
  4033                         4.435
  4041                         4.435
  4051                         4.435
  4055                         4.435
  4056                         4.435
  4058                         4.435
  4385                         4.435
  4386                         4.435
  4387                         4.435
  4388                         4.435
  4389                         4.435
  4390                         4.435
  4391                         4.435
  4392                         4.435
  4393                         4.435
  4394                         4.435
  4395                         4.435
  4396                         4.435
  4397                         4.435
  4398                         4.435
  4429                         4.435
  4430                         4.435
  4431                         4.435
  4432                         4.435
  4433                         4.435
  4434                         4.435
  4435                         4.435
  4436                         4.435
  4437                         4.435
  4438                         4.435
  4439                         4.435
  4440                         4.435
  4441                         4.435
  4442                         4.435
  4443                         4.435
  4444                         4.435
  4445                         4.435
  4446                         4.435
  4447                         4.435
  4448                         4.435
  4449                         4.435
  4450                         4.435
  4451                         4.435
  4452                         4.435
  4453                         4.435
  4454                         4.435
  4462                         4.435
  4463                         4.435
  4563                         4.435
  4564                         4.435
  4565                         4.435
  4566                         4.435
  4567                         4.435
  4568                         4.435
  4569                         4.435
  4570                         4.435
  4571                         4.435
  4572                         4.435
  4573                         4.435
  4574                         4.435
  4575                         4.435
  4576                         4.435
  4577                         4.435
  4578                         4.435
  4579                         4.435
  4580                         4.435
  4581                         4.435
  4624                         4.435
  4625                         4.435
  4644                         4.435
  4645                         4.435
  4646                         4.435
  4679                         4.435
  4680                         4.435
  4681                         4.435
  4682                         4.435
  4683                         4.435
  4711                         4.435
  4712                         4.435
  4713                         4.435
  4714                         4.435
  4715                         4.435
  4716                         4.435
  4717                         4.435
  4718                         4.435
  4722                         4.435
  4760                         4.435
  4761                         4.435
  4765                         4.435
  4766                         4.435
  4767                         4.435
  4768                         4.435
  4769                         4.435
  4855                         4.435
  4856                         4.435
  5284                         4.435
  5285                         4.435
  5286                         4.435
  5287                         4.435
  5288                         4.435
  5289                         4.435
  5290                         4.435
  5291                         4.435
  5292                         4.435
  5293                         4.435
  5294                         4.435
  5295                         4.435
  5296                         4.435
  5297                         4.435
  5298                         4.435
  5299                         4.435
  5300                         4.435
  5301                         4.435
  5302                         4.435
  5303                         4.435
  5304                         4.435
  5305                         4.435
  5306                         4.435
  5307                         4.435
  5308                         4.435
  5309                         4.435
  5310                         4.435
  5311                         4.435
  5312                         4.435
  5313                         4.435
  5314                         4.435
  5315                         4.435
  5316                         4.435
  5317                         4.435
  5318                         4.435
  5319                         4.435
  5320                         4.435
  5321                         4.435
  5322                         4.435
  5323                         4.435
  5324                         4.435
  5325                         4.435
  5326                         4.435
  5327                         4.435
  5328                         4.435
  5329                         4.435
  5330                         4.435
  5333                         4.435
  5334                         4.435
  6040                         4.435
  6041                         4.435
  6162                         4.435
  7207                         4.435
  7208                         4.435
  7213                         4.435
  7214                         4.435
  7219                         4.435
  7220                         4.435
  7221                         4.435
  7225                         4.435
  7229                         4.435
  7231                         4.435
  7268                         4.435
  7269                         4.435
  7271                         4.435
  7272                         4.435
  7273                         4.435
  7433                         4.435
  7434                         4.435
  7544                         4.435
  7545                         4.435
  8737                         4.435
  8818                         4.435
  9942                         4.435
  9957                         4.435
  4399                         1.338
  4400                         1.338
  4401                         1.338
  4402                         1.338
  4403                         1.338
  4404                         1.338
  4405                         1.338
  4406                         1.338
  4407                         1.338
  4408                         1.338
  4409                         1.338
  4410                         1.338
  4411                         1.338
  4412                         1.338
  4423                         1.338
  4424                         1.338
  4425                         1.338
  4426                         1.338
  4427                         1.338
  4428                         1.338
  4455                         1.338
  4456                         1.338
  4457                         1.338
  4458                         1.338
  4459                         1.338
  4460                         1.338
  4461                         1.338
  4464                         1.338
  4465                         1.338
  4466                         1.338
  4467                         1.338
  4468                         1.338
  4469                         1.338
  4470                         1.338
  4471                         1.338
  4472                         1.338
  4473                         1.338
  4474                         1.338
  4628                         1.338
  4631                         1.338
  4632                         1.338
  4633                         1.338
  4634                         1.338
  4637                         1.338
  4686                         1.338
  4687                         1.338
  4688                         1.338
  5032                         1.338
  5331                         1.338
  5332                         1.338
  5335                         1.338
  5336                         1.338
  5337                         1.338
  5338                         1.338
  5339                         1.338
  5340                         1.338
  5341                         1.338
  5342                         1.338
  5343                         1.338
  5344                         1.338
  5345                         1.338
  5346                         1.338
  5347                         1.338
  5348                         1.338
  5349                         1.338
  5350                         1.338
  6088                         1.338
  7275                         1.338
  9955                         1.338
  9956                         1.338
  ----------------------------------
  System                    1268.831
  
  
  ******************
  Node Depth Summary
  ******************
  
  ---------------------------------------------------------------------------------
                                 Average  Maximum  Maximum  Time of Max    Reported
                                   Depth    Depth      HGL   Occurrence   Max Depth
  Node                 Type       Meters   Meters   Meters  days hr:min      Meters
  ---------------------------------------------------------------------------------
  Node_02706           JUNCTION     1.67     2.59    99.43     0  04:20        0.00
  Node_02707           JUNCTION     0.21     0.27    99.70     0  04:15        0.00
  Node_02708           JUNCTION     0.35     0.39   100.15     0  04:15        0.00
  Node_02709           JUNCTION     0.42     0.44   100.07     0  04:15        0.00
  Node_02711           JUNCTION     0.05     0.13   100.04     0  04:15        0.00
  Node_02712           JUNCTION     0.05     0.13   100.04     0  04:15        0.00
  Node_02713           JUNCTION     0.09     0.17   100.02     0  04:15        0.00
  Node_02714           JUNCTION     0.01     0.03   100.43     0  04:15        0.00
  Node_02715           JUNCTION     0.06     0.14    99.95     0  04:15        0.00
  Node_02716           JUNCTION     0.06     0.16    99.88     0  04:15        0.00
  Node_02717           JUNCTION     0.09     0.21    99.84     0  04:15        0.00
  Node_02718           JUNCTION     0.07     0.18    99.78     0  04:15        0.00
  Node_02720           JUNCTION     0.08     0.19    99.76     0  04:15        0.00
  Node_02721           JUNCTION     0.35     0.47    99.72     0  04:15        0.00
  Node_02722           JUNCTION     0.13     0.16   101.96     0  04:15        0.00
  Node_02723           JUNCTION     0.27     0.40    99.69     0  04:15        0.00
  Node_02724           JUNCTION     0.10     0.23    99.65     0  04:16        0.00
  Node_02725           JUNCTION     0.09     0.23    99.59     0  04:16        0.00
  Node_02726           JUNCTION     0.13     0.26    99.52     0  04:16        0.00
  Node_02727           JUNCTION     0.19     0.38    99.51     0  04:21        0.00
  Node_02728           JUNCTION     0.05     0.07   100.15     0  04:15        0.00
  Node_02729           JUNCTION     0.21     0.44    99.50     0  04:22        0.00
  Node_02730           JUNCTION     0.21     0.47    99.49     0  04:24        0.00
  Node_02731           JUNCTION     0.62     0.90    99.49     0  04:23        0.00
  Node_02732           JUNCTION     0.18     0.47    99.49     0  04:20        0.00
  Node_02733           JUNCTION     0.17     0.48    99.48     0  04:23        0.00
  Node_02734           JUNCTION     0.45     0.77    99.48     0  04:21        0.00
  Node_02735           JUNCTION     0.35     0.67    99.48     0  04:22        0.00
  Node_02736           JUNCTION     0.53     0.87    99.48     0  04:22        0.00
  Node_02737           JUNCTION     0.51     0.86    99.48     0  04:21        0.00
  Node_02738           JUNCTION     0.34     0.71    99.48     0  04:22        0.00
  Node_02739           JUNCTION     0.20     0.61    99.48     0  04:20        0.00
  Node_02740           JUNCTION     0.21     0.63    99.47     0  04:20        0.00
  Node_02741           JUNCTION     0.05     0.19    99.49     0  04:21        0.00
  Node_02742           JUNCTION     0.22     0.67    99.47     0  04:21        0.00
  Node_02743           JUNCTION     0.63     1.09    99.46     0  04:21        0.00
  Node_02744           JUNCTION     0.06     0.13    99.47     0  04:21        0.00
  Node_02745           JUNCTION     0.36     0.84    99.46     0  04:21        0.00
  Node_02746           JUNCTION     0.25     0.76    99.45     0  04:20        0.00
  Node_02747           JUNCTION     0.05     0.08   100.43     0  01:30        0.00
  Node_02748           JUNCTION     0.03     0.05   100.50     0  01:30        0.00
  Node_02749           JUNCTION     0.26     0.81    99.45     0  04:20        0.00
  Node_02750           JUNCTION     0.27     0.84    99.45     0  04:20        0.00
  Node_02751           JUNCTION     0.24     0.85    99.44     0  04:20        0.00
  Node_02752           JUNCTION     0.23     0.89    99.44     0  04:20        0.00
  Node_02753           JUNCTION     0.24     0.96    99.43     0  04:20        0.00
  Node_02754           JUNCTION     0.19     1.11    99.43     0  04:20        0.00
  Node_02755           JUNCTION     1.12     2.04    99.43     0  04:20        0.00
  Node_02963           JUNCTION     0.05     0.10   100.01     0  04:15        0.00
  Node_02968           JUNCTION     0.06     0.09   100.21     0  04:15        0.00
  Node_02969           JUNCTION     0.07     0.10    99.98     0  00:00        0.00
  Node_02973           JUNCTION     0.66     1.55    99.44     0  04:20        0.00
  Node_02974           JUNCTION     0.73     2.21    99.34     0  04:19        0.00
  Node_02975           JUNCTION     0.73     2.20    99.34     0  04:19        0.00
  Node_02976           JUNCTION     0.74     2.19    99.38     0  04:20        0.00
  Node_02977           JUNCTION     0.71     2.10    99.44     0  04:20        0.00
  Node_02978           JUNCTION     0.61     1.94    99.47     0  04:20        0.00
  Node_02979           JUNCTION     0.69     2.19    99.30     0  04:20        0.00
  Node_02980           JUNCTION     0.64     2.18    99.27     0  04:20        0.00
  Node_02981           JUNCTION     0.65     2.29    99.24     0  04:20        0.00
  Node_02983           JUNCTION     0.04     0.05   100.17     0  01:30        0.00
  Node_02984           JUNCTION     1.04     2.45    99.43     0  04:20        0.00
  Node_03924           JUNCTION     0.02     0.03   100.86     0  04:15        0.00
  Node_03925           JUNCTION     0.23     0.31   100.67     0  04:15        0.00
  Node_03926           JUNCTION     0.01     0.02   101.49     0  04:15        0.00
  Node_03927           JUNCTION     0.21     0.29   100.67     0  04:15        0.00
  Node_03928           JUNCTION     0.22     0.31   100.66     0  04:15        0.00
  Node_03929           JUNCTION     0.22     0.32   100.63     0  04:15        0.00
  Node_03930           JUNCTION     0.24     0.36   100.61     0  04:16        0.00
  Node_03931           JUNCTION     0.22     0.35   100.60     0  04:16        0.00
  Node_03932           JUNCTION     0.25     0.42   100.58     0  04:16        0.00
  Node_03933           JUNCTION     0.23     0.45   100.57     0  04:16        0.00
  Node_03934           JUNCTION     0.05     0.08   100.94     0  04:15        0.00
  Node_03935           JUNCTION     0.27     0.59   100.57     0  04:16        0.00
  Node_03936           JUNCTION     0.29     0.63   100.55     0  04:16        0.00
  Node_03937           JUNCTION     1.21     1.22   101.38     0  04:15        0.00
  Node_03938           JUNCTION     1.05     3.07   102.27     0  04:04        0.00
  Node_03939           JUNCTION     1.16     3.22   102.26     0  04:04        0.00
  Node_03940           JUNCTION     1.23     3.32   102.25     0  04:04        0.00
  Node_03941           JUNCTION     1.32     3.43   102.23     0  04:04        0.00
  Node_03942           JUNCTION     1.36     3.47   102.22     0  04:05        0.00
  Node_03943           JUNCTION     1.46     3.58   102.19     0  04:03        0.00
  Node_03944           JUNCTION     1.56     3.69   102.17     0  04:03        0.00
  Node_03945           JUNCTION     1.61     3.76   102.18     0  04:07        0.00
  Node_03946           JUNCTION     1.67     3.83   102.19     0  04:06        0.00
  Node_03947           JUNCTION     1.87     4.13   102.02     0  04:14        0.00
  Node_03948           JUNCTION     1.78     4.06   101.91     0  04:15        0.00
  Node_03949           JUNCTION     1.85     4.13   101.83     0  04:15        0.00
  Node_03950           JUNCTION     1.68     3.96   101.73     0  04:15        0.00
  Node_03951           JUNCTION     1.62     3.87   101.56     0  04:14        0.00
  Node_03952           JUNCTION     1.57     3.77   101.36     0  04:15        0.00
  Node_03953           JUNCTION     1.41     3.55   101.13     0  04:15        0.00
  Node_03954           JUNCTION     2.24     4.27   100.85     0  04:15        0.00
  Node_03955           JUNCTION     1.14     3.05   100.54     0  04:15        0.00
  Node_04031           JUNCTION     0.11     0.89   102.12     0  04:13        0.00
  Node_04032           JUNCTION     1.56     3.76   102.11     0  04:13        0.00
  Node_04040           JUNCTION     0.43     1.66   102.21     0  04:03        0.00
  Node_04050           JUNCTION     0.25     0.26   101.23     0  01:30        0.00
  Node_04054           JUNCTION     0.02     0.04   101.18     0  01:30        0.00
  Node_04055           JUNCTION     0.14     0.17   100.98     0  01:30        0.00
  Node_04057           JUNCTION     0.03     0.23   100.54     0  04:15        0.00
  Node_04384           JUNCTION     0.83     1.95    99.53     0  04:19        0.00
  Node_04385           JUNCTION     0.55     1.63    99.55     0  04:21        0.00
  Node_04386           JUNCTION     0.54     1.63    99.57     0  04:20        0.00
  Node_04387           JUNCTION     0.54     1.61    99.58     0  04:20        0.00
  Node_04388           JUNCTION     0.54     1.59    99.59     0  04:20        0.00
  Node_04389           JUNCTION     0.13     0.16   100.52     0  01:30        0.00
  Node_04390           JUNCTION     0.54     1.57    99.59     0  04:20        0.00
  Node_04391           JUNCTION     0.53     1.55    99.61     0  04:20        0.00
  Node_04392           JUNCTION     0.65     1.66    99.62     0  04:20        0.00
  Node_04393           JUNCTION     0.53     1.52    99.63     0  04:20        0.00
  Node_04394           JUNCTION     0.08     0.10    99.75     0  01:30        0.00
  Node_04395           JUNCTION     0.52     1.50    99.65     0  04:20        0.00
  Node_04396           JUNCTION     0.51     1.46    99.67     0  04:20        0.00
  Node_04397           JUNCTION     0.01     0.02    99.92     0  04:15        0.00
  Node_04428           JUNCTION     0.52     1.46    99.68     0  04:19        0.00
  Node_04429           JUNCTION     0.52     1.44    99.69     0  04:19        0.00
  Node_04430           JUNCTION     0.51     1.42    99.70     0  04:19        0.00
  Node_04431           JUNCTION     0.34     1.15    99.72     0  04:20        0.00
  Node_04432           JUNCTION     0.27     1.04    99.72     0  04:20        0.00
  Node_04433           JUNCTION     0.13     0.84    99.72     0  04:21        0.00
  Node_04434           JUNCTION     0.41     1.13    99.72     0  04:20        0.00
  Node_04435           JUNCTION     0.29     0.96    99.73     0  04:19        0.00
  Node_04436           JUNCTION     0.70     1.34    99.74     0  04:20        0.00
  Node_04437           JUNCTION     0.86     1.44    99.73     0  04:20        0.00
  Node_04438           JUNCTION     1.17     1.73    99.74     0  04:20        0.00
  Node_04439           JUNCTION     0.24     0.77    99.75     0  04:19        0.00
  Node_04440           JUNCTION     0.25     0.74    99.76     0  04:21        0.00
  Node_04441           JUNCTION     0.06     0.42    99.75     0  04:21        0.00
  Node_04442           JUNCTION     0.34     0.79    99.76     0  04:22        0.00
  Node_04443           JUNCTION     0.22     0.63    99.76     0  04:21        0.00
  Node_04444           JUNCTION     0.23     0.59    99.77     0  04:21        0.00
  Node_04445           JUNCTION     0.19     0.51    99.77     0  04:21        0.00
  Node_04446           JUNCTION     0.19     0.44    99.77     0  04:20        0.00
  Node_04447           JUNCTION     0.18     0.34    99.78     0  04:20        0.00
  Node_04448           JUNCTION     0.22     0.34    99.80     0  04:20        0.00
  Node_04449           JUNCTION     0.23     0.35    99.80     0  04:19        0.00
  Node_04450           JUNCTION     0.40     0.50    99.82     0  01:30        0.00
  Node_04451           JUNCTION     0.24     0.32    99.87     0  01:30        0.00
  Node_04452           JUNCTION     0.04     0.08    99.90     0  04:15        0.00
  Node_04453           JUNCTION     0.02     0.04   100.26     0  01:30        0.00
  Node_04461           JUNCTION     0.23     0.30    99.92     0  00:50        0.00
  Node_04462           JUNCTION     0.24     0.33    99.98     0  00:49        0.00
  Node_04562           JUNCTION     0.02     0.15    99.74     0  04:19        0.00
  Node_04563           JUNCTION     0.29     0.62    99.74     0  04:21        0.00
  Node_04564           JUNCTION     0.06     0.36    99.74     0  04:20        0.00
  Node_04565           JUNCTION     0.07     0.38    99.74     0  04:20        0.00
  Node_04566           JUNCTION     0.17     0.55    99.74     0  04:20        0.00
  Node_04567           JUNCTION     0.11     0.53    99.74     0  04:20        0.00
  Node_04568           JUNCTION     0.09     0.55    99.74     0  04:19        0.00
  Node_04569           JUNCTION     0.18     0.77    99.74     0  04:19        0.00
  Node_04570           JUNCTION     0.06     0.08    99.82     0  01:30        0.00
  Node_04571           JUNCTION     0.18     0.81    99.74     0  04:19        0.00
  Node_04572           JUNCTION     1.55     2.20    99.73     0  04:19        0.00
  Node_04573           JUNCTION     1.21     1.89    99.73     0  04:19        0.00
  Node_04574           JUNCTION     2.14     2.15   100.45     0  04:14        0.00
  Node_04575           JUNCTION     1.68     2.41    99.72     0  04:20        0.00
  Node_04576           JUNCTION     0.28     1.07    99.72     0  04:20        0.00
  Node_04577           JUNCTION     0.30     1.14    99.72     0  04:20        0.00
  Node_04578           JUNCTION     0.33     1.21    99.72     0  04:19        0.00
  Node_04579           JUNCTION     0.39     1.30    99.71     0  04:19        0.00
  Node_04580           JUNCTION     0.03     0.05    99.83     0  01:30        0.00
  Node_04623           JUNCTION     0.05     0.08    99.74     0  00:00        0.00
  Node_04624           JUNCTION     0.05     0.23    99.69     0  04:19        0.00
  Node_04643           JUNCTION     0.04     0.07    99.98     0  01:30        0.00
  Node_04644           JUNCTION     0.03     0.04    99.88     0  01:30        0.00
  Node_04645           JUNCTION     0.20     0.23    99.83     0  01:30        0.00
  Node_04678           JUNCTION     0.03     0.05    99.78     0  01:30        0.00
  Node_04679           JUNCTION     0.03     0.04   100.23     0  01:30        0.00
  Node_04680           JUNCTION     0.60     1.74    99.51     0  04:21        0.00
  Node_04681           JUNCTION     0.57     1.77    99.49     0  04:21        0.00
  Node_04682           JUNCTION     0.03     0.05   101.06     0  01:30        0.00
  Node_04710           JUNCTION     0.14     0.18   100.17     0  04:13        0.00
  Node_04711           JUNCTION     0.18     0.25   100.24     0  04:13        0.00
  Node_04712           JUNCTION     0.16     0.23   100.24     0  04:12        0.00
  Node_04713           JUNCTION     0.13     0.18   100.23     0  01:29        0.00
  Node_04714           JUNCTION     0.17     0.22   100.27     0  01:29        0.00
  Node_04715           JUNCTION     0.13     0.17   100.26     0  01:26        0.00
  Node_04716           JUNCTION     0.16     0.19   100.32     0  01:30        0.00
  Node_04717           JUNCTION     0.12     0.13   100.43     0  01:30        0.00
  Node_04721           JUNCTION     0.11     0.13   100.48     0  04:15        0.00
  Node_04759           JUNCTION     0.11     0.12   100.30     0  01:30        0.00
  Node_04760           JUNCTION     0.13     0.14    99.60     0  01:30        0.00
  Node_04764           JUNCTION     0.15     0.18   100.10     0  01:30        0.00
  Node_04765           JUNCTION     0.09     0.13   100.55     0  04:15        0.00
  Node_04766           JUNCTION     0.15     0.18    99.95     0  01:30        0.00
  Node_04767           JUNCTION     0.14     0.16    99.99     0  01:30        0.00
  Node_04768           JUNCTION     0.12     0.14    99.80     0  01:30        0.00
  Node_04854           JUNCTION     0.03     0.05   100.49     0  04:15        0.00
  Node_04855           JUNCTION     0.54     0.57   100.50     0  04:15        0.00
  Node_05283           JUNCTION     1.49     3.58   102.20     0  04:06        0.00
  Node_05284           JUNCTION     1.47     3.55   102.21     0  04:06        0.00
  Node_05285           JUNCTION     1.43     3.47   102.22     0  04:03        0.00
  Node_05286           JUNCTION     1.41     3.42   102.22     0  04:03        0.00
  Node_05287           JUNCTION     1.39     3.42   102.27     0  04:04        0.00
  Node_05288           JUNCTION     1.38     3.41   102.28     0  04:04        0.00
  Node_05289           JUNCTION     0.88     2.70   102.22     0  04:03        0.00
  Node_05290           JUNCTION     1.37     3.40   102.29     0  04:04        0.00
  Node_05291           JUNCTION     1.18     3.19   102.39     0  04:04        0.00
  Node_05292           JUNCTION     1.15     3.15   102.39     0  04:04        0.00
  Node_05293           JUNCTION     1.14     3.14   102.39     0  04:04        0.00
  Node_05294           JUNCTION     1.11     3.09   102.40     0  04:04        0.00
  Node_05295           JUNCTION     1.15     3.13   102.40     0  04:04        0.00
  Node_05296           JUNCTION     1.13     3.09   102.41     0  04:04        0.00
  Node_05297           JUNCTION     0.92     2.78   102.29     0  04:05        0.00
  Node_05298           JUNCTION     1.09     3.02   102.41     0  04:04        0.00
  Node_05299           JUNCTION     1.08     3.01   102.41     0  04:04        0.00
  Node_05300           JUNCTION     1.06     2.95   102.40     0  04:04        0.00
  Node_05301           JUNCTION     1.02     2.91   102.40     0  04:04        0.00
  Node_05302           JUNCTION     1.03     2.88   102.38     0  04:04        0.00
  Node_05303           JUNCTION     0.99     2.85   102.39     0  04:04        0.00
  Node_05304           JUNCTION     1.02     2.85   102.38     0  04:04        0.00
[...]
  Link_01802                  2.02      2.05      2.03      0.91         0.49
  Link_01803                  1.96      2.03      1.96      1.17         0.48
  Link_01804                  2.10      2.13      2.11      1.08         0.64
  Link_01805                  2.13      2.16      2.13      1.09         0.88
  Link_01806                  2.15      2.22      2.16      1.07         0.71
  Link_01807                  2.22      2.23      2.22      0.72         0.63
  Link_01809                  2.21      2.25      2.23      1.04         0.72
  Link_01810                  2.24      2.24      2.25      0.96         0.80
  Link_01814                  2.18      2.18      2.22      0.90         0.69
  Link_01815                  2.13      2.13      2.18      0.42         0.39
  Link_01816                  2.13      2.15      2.13      2.95         1.80
  Link_01817                  0.01      0.01      0.80      0.01         0.01
  Link_01818                  2.13      2.13      2.15      0.81         0.68
  Link_01819                  1.92      1.92      2.13      0.82         0.68
  Link_02075                  0.96      0.96      1.03      0.01         0.01
  Link_02076                  1.03      1.03      1.27      0.01         0.01
  Link_02078                  1.27      1.27      1.47      0.01         0.01
  Link_02079                  0.01      0.01      0.50      0.01         0.01
  Link_02080                  1.47      1.47      1.58      0.01         0.01
  Link_02081                  1.58      1.58      1.87      0.01         0.01
  Link_02082                  1.87      1.87      2.37      0.01         0.01
  Link_02085                  0.63      0.63      0.88      0.01         0.01
  Link_02086                  0.60      0.60      0.63      0.01         0.01
  Link_02087                  0.53      0.53      0.60      0.01         0.01
  Link_02088                  0.49      0.49      0.53      0.01         0.01
  Link_02089                  0.43      0.43      0.49      0.01         0.01
  Link_02090                  0.41      0.41      0.43      0.01         0.01
  Link_02091                  0.34      0.34      0.41      0.01         0.01
  Link_02092                  0.30      0.30      0.33      0.01         0.01
  Link_02093                  0.28      0.28      0.30      0.01         0.01
  Link_02094                  0.12      0.12      0.24      0.01         0.01
  Link_02095                  0.01      0.01      0.12      0.01         0.01
  Link_02102                  0.01      0.01      0.01      1.66         0.01
  Link_02139                  0.01      0.01      0.01      0.40         0.01
  Link_02387                  0.01      0.01      0.17      0.01         0.01
  Link_02388                  0.19      0.19      0.25      0.01         0.01
  Link_02390                  0.27      0.27      0.31      0.01         0.01
  Link_02391                  0.31      0.31      0.57      0.01         0.01
  Link_02393                  0.58      0.58      0.62      0.01         0.01
  Link_05462                  0.01      0.01      0.03      0.01         0.01
  Link_05463                  0.27      0.27      0.29      0.01         0.01
  Link_05464                  0.50      0.50      0.50      0.01         0.16
  Link_05496                  2.88      2.92      2.88      3.21         2.57
  Link_05663                  0.01      0.01      0.53      0.01         0.01
  Link_05664                  4.36      4.36      4.37      0.01         0.02
  Link_05665                  4.42      4.53      4.42      4.91         4.42
  Link_05677                  4.36      4.37      4.36      4.55         4.34
  Link_05678                  0.60      0.60      0.68      0.01         0.01
  Link_05720                  2.04      2.11      2.05      1.34         0.64
  Link_05721                  2.21      2.22      2.24      0.97         0.76
  Link_05726                  0.88      0.88      1.15      0.01         0.01
  Link_05727                  0.87      0.87      0.95      0.01         0.01
  Link_05728                  0.24      0.24      0.30      0.01         0.01
  Link_05729                  0.01      0.01      0.01      0.09         0.01
  Link_05743                  0.62      0.62      0.96      0.01         0.01
  Link_05744                  2.37      2.37      3.01      0.01         0.01
  Link_05812                  3.83      3.83      4.01      0.01         0.01
  Link_05813                  3.50      3.50      3.54      0.01         0.01
  Link_05814                  3.26      3.26      3.30      0.01         0.01
  Link_05815                  3.17      3.17      3.20      0.01         0.01
  Link_07231                  0.01      0.01      0.01      0.06         0.01
  Link_07233                  0.02      0.34      0.02      0.74         0.02
  Link_07234                  0.10      0.14      0.10      3.18         0.10
  Link_07235                  0.41      0.41      0.46      0.01         0.01
  Link_07464                  3.33      3.33      3.36      0.01         0.01
  Link_07687                  3.51      3.51      3.56      0.01         0.01
  Link_08912                  0.06      0.06      0.34      0.01         0.01
  Link1_to_ChengXi            2.47      2.47      2.91      0.01         0.01
  Link2_to_ChengXi            2.17      4.79      2.17      4.92         2.17
  Link3_to_ChengXi            0.01      0.25      0.01      0.42         0.01
  
  
  ***************
  Pumping Summary
  ***************
  
  ---------------------------------------------------------------------------------------------------------
                                                  Min       Avg       Max     Total     Power    % Time Off
                        Percent   Number of      Flow      Flow      Flow    Volume     Usage    Pump Curve
  Pump                 Utilized   Start-Ups       CMS       CMS       CMS  10^6 ltr     Kw-hr    Low   High
  ---------------------------------------------------------------------------------------------------------
  Pump_ChengXi1           86.00         222      0.00      0.17      0.17     3.102     35.74    0.0    0.0
  Pump_ChengXi2           76.39         221      0.00      0.17      0.17     2.755     30.82    0.0    0.0
  Pump_ChengXi3           25.30          81      0.00      0.17      0.17     0.913     10.29    0.0    0.0
  Pump_ChengXi4            2.94          39      0.00      0.17      0.17     0.106      1.68    0.0    0.0
  Pump_LaoDongLu1         91.67           6      0.00      0.02      0.03     0.442      7.86    0.0    0.0
  Pump_LaoDongLu2         80.56          13      0.00      0.02      0.03     0.384      6.88    0.0    0.0
  Pump_LaoDongLu3          9.72           5      0.00      0.01      0.03     0.027      0.46    0.0    0.0
  outfallpump             97.99           8      0.00      0.32      0.45     6.802    122.28    0.0    0.0
  
  
  ***************************
  Link Pollutant Load Summary
  ***************************
  
  ----------------------------------
                                 COD
  Link                            kg
  ----------------------------------
  Link_01146                  22.335
  Link_01147                  27.219
  Link_01148                  31.906
  Link_01149                  36.197
  Link_01150                  40.503
  Link_01151                  44.257
  Link_01152                  43.113
  Link_01274                   6.202
  Link_01275                  10.649
  Link_01276                  24.853
  Link_01292                   9.745
  Link_01294                  33.969
  Link_01295                  38.445
  Link_01296                  42.940
  Link_01297                  57.231
  Link_01298                   6.205
  Link_01299                  68.029
  Link_01300                  72.558
  Link_01301                  77.123
  Link_01302                   6.192
  Link_01312                   9.757
  Link_01313                 397.257
  Link_01314                 402.312
  Link_01315                 407.148
  Link_01316                 412.069
  Link_01317                 417.028
  Link_01318                 422.406
  Link_01319                 427.897
  Link_01320                 463.902
  Link_01323                 286.910
  Link_01324                   8.177
  Link_01325                 299.417
  Link_01326                 304.335
  Link_01327                 301.441
  Link_01328                   8.714
  Link_01329                 314.578
  Link_01330                 319.876
  Link_01331                 324.860
  Link_01332                 250.671
  Link_01333                   8.548
  Link_01334                 263.637
  Link_01335                   9.193
  Link_01336                 277.037
  Link_01337                 227.361
  Link_01338                   8.590
  Link_01339                 214.516
  Link_01340                   8.282
  Link_01341                 203.155
  Link_01342                   8.257
  Link_01343                 194.495
  Link_01344                  17.635
  Link_01345                 175.495
  Link_01346                 172.955
  Link_01347                   8.485
  Link_01348                 151.229
  Link_01349                  17.067
  Link_01350                 148.506
  Link_01351                   8.450
  Link_01352                 140.462
  Link_01556                  11.589
  Link_01557                  24.443
  Link_01558                1487.072
  Link_01559                  29.183
  Link_01560                1481.032
  Link_01561                1522.332
  Link_01562                1528.856
  Link_01563                1535.023
  Link_01564                   4.864
  Link_01565                 125.682
  Link_01566                   6.588
  Link_01567                   8.391
  Link_01568                 112.646
  Link_01569                   8.335
  Link_01570                 107.362
  Link_01571                  96.817
  Link_01572                  32.285
  Link_01573                  80.478
  Link_01574                  74.080
  Link_01575                   8.183
  Link_01576                  60.016
  Link_01577                  45.401
  Link_01578                  40.225
  Link_01579                   8.759
  Link_01580                   4.886
  Link_01581                   6.261
  Link_01582                   4.884
  Link_01731                   7.952
  Link_01732                  12.449
  Link_01733                  16.980
  Link_01734                   8.038
  Link_01735                   6.204
  Link_01751                  40.357
  Link_01752                  44.926
  Link_01753                  57.614
  Link_01754                  62.147
  Link_01755                  66.729
  Link_01756                   6.222
  Link_01757                  77.505
  Link_01758                   7.929
  Link_01759                   8.056
  Link_01760                  94.726
  Link_01761                  99.374
  Link_01762                 104.259
  Link_01763                   6.205
  Link_01764                 115.117
  Link_01765                 124.704
  Link_01766                 129.426
  Link_01767                 192.104
  Link_01768                 196.888
  Link_01769                 201.416
  Link_01770                 206.174
  Link_01771                 210.985
  Link_01772                  20.063
  Link_01773                 236.669
  Link_01774                  27.621
  Link_01775                  57.879
  Link_01776                  53.692
  Link_01777                  49.192
  Link_01778                  44.782
  Link_01779                  40.284
  Link_01780                  35.792
  Link_01781                  31.312
  Link_01782                 284.470
  Link_01783                   8.124
  Link_01784                 297.661
  Link_01785                 303.259
  Link_01786                  58.256
  Link_01787                  29.381
  Link_01788                 396.362
  Link_01789                 402.093
  Link_01790                  13.297
  Link_01791                  11.610
  Link_01792                   9.783
  Link_01793                 439.073
  Link_01794                 444.736
  Link_01795                 450.259
  Link_01796                 455.738
  Link_01797                 461.006
  Link_01798                 977.322
  Link_01799                 969.304
  Link_01800                 983.781
  Link_01801                 482.399
  Link_01802                 933.833
  Link_01803                 962.105
  Link_01804                 830.375
  Link_01805                 823.699
  Link_01806                 817.021
  Link_01807                 809.620
  Link_01808                  11.528
  Link_01809                 792.403
  Link_01810                 780.141
  Link_01811                   4.417
  Link_01812                  49.204
  Link_01813                  40.166
  Link_01814                 751.626
  Link_01815                 744.204
  Link_01816                 730.683
  Link_01817                   6.142
  Link_01818                 701.273
  Link_01819                 684.705
  Link_01820                   9.679
  Link_01821                  22.237
  Link_01822                   4.867
  Link_01823                 142.024
  Link_01824                 140.306
  Link_01825                  42.195
  Link_01826                  43.672
  Link_01827                   1.335
  Link_01828                  46.528
  Link_01829                   4.850
  Link_01830                  52.969
  Link_01831                   1.335
  Link_01832                  55.846
  Link_01833                  57.336
  Link_01834                  60.327
  Link_01835                   1.335
  Link_01836                  32.225
  Link_01837                  19.205
  Link_01838                  21.925
  Link_01839                  30.656
  Link_01840                  29.266
  Link_01841                  27.891
  Link_01842                  23.402
  Link_01843                  20.577
  Link_01844                  19.196
  Link_02074                   7.979
  Link_02075                 134.806
  Link_02076                 149.590
  Link_02077                  11.799
  Link_02078                 166.421
  Link_02079                   9.660
  Link_02080                 181.091
  Link_02081                 185.922
  Link_02082                 190.823
  Link_02083                   9.752
  Link_02084                   7.988
  Link_02085                 475.412
  Link_02086                 463.990
  Link_02087                 457.969
  Link_02088                 451.362
  Link_02089                 444.793
  Link_02090                 420.464
  Link_02091                 415.146
  Link_02092                 409.616
  Link_02093                   7.906
  Link_02094                 390.311
  Link_02095                 384.689
  Link_02096                 347.207
  Link_02097                  14.980
  Link_02098                  16.877
  Link_02099                 341.643
  Link_02100                 336.217
  Link_02101                  13.215
  Link_02102                 311.702
  Link_02103                 292.915
  Link_02104                  15.985
  Link_02105                 234.674
  Link_02106                  11.523
  Link_02107                   4.403
  Link_02108                 223.447
  Link_02109                 218.130
  Link_02110                 205.767
  Link_02111                 137.179
  Link_02112                  13.301
  Link_02113                 102.193
  Link_02114                  25.492
  Link_02115                  24.014
  Link_02116                  22.611
  Link_02117                  21.253
  Link_02118                  19.870
  Link_02123                   4.880
  Link_02124                   6.246
  Link_02125                   7.618
  Link_02126                   8.941
  Link_02127                  18.481
  Link_02128                  17.098
  Link_02129                  15.746
  Link_02130                  14.392
  Link_02131                  13.000
  Link_02132                  11.603
  Link_02133                  10.209
  Link_02134                 103.704
  Link_02135                 105.180
  Link_02136                 111.564
  Link_02137                   4.881
  Link_02138                 125.383
  Link_02139                 123.883
  Link_02140                 122.317
  Link_02141                 120.880
  Link_02142                 119.319
  Link_02143                 113.020
  Link_02383                   4.664
  Link_02384                   9.526
  Link_02385                  14.818
  Link_02386                  22.340
  Link_02387                  41.435
  Link_02388                  46.165
  Link_02389                  22.145
  Link_02390                  50.869
  Link_02391                  77.088
  Link_02392                  26.877
  Link_02393                 107.566
  Link_05459                  35.798
  Link_05460                  90.089
  Link_05461                 119.799
  Link_05462                 269.517
  Link_05463                 433.106
  Link_05464                  36.633
  Link_05496                1474.136
  Link_05662                  29.339
  Link_05663                   6.184
  Link_05664                  47.590
  Link_05665                 469.195
  Link_05677                 377.569
  Link_05678                  15.240
  Link_05720                 927.468
  Link_05721                 772.192
  Link_05722                  13.302
  Link_05723                  75.173
  Link_05725                  10.341
  Link_05726                 480.828
  Link_05727                   6.220
  Link_05728                 396.072
  Link_05729                 317.210
  Link_05730                 204.186
  Link_05731                 138.588
  Link_05732                 135.749
  Link_05742                  22.436
  Link_05743                 112.281
  Link_05744                 196.129
  Link_05752                  18.651
  Link_05753                   3.113
  Link_05754                  21.979
  Link_05791                   4.869
  Link_05812                 281.566
  Link_05813                 178.011
  Link_05814                 131.087
  Link_05815                 110.126
  Link_05816                  13.896
  Link_05817                  20.242
  Link_05818                  10.227
  Link_05983                  21.347
  Link_05984                  16.902
  Link_06039                   1.332
  Link_07220                  67.167
  Link_07221                  71.652
  Link_07222                  92.259
  Link_07230                  96.941
  Link_07231                 101.520
  Link_07233                 199.593
  Link_07234                 204.288
  Link_07235                  93.943
  Link_07270                  22.296
  Link_07271                  26.790
  Link_07274                  13.309
  Link_07277                  31.237
  Link_07278                  35.685
  Link_07295                  40.172
  Link_07296                  44.721
  Link_07297                  62.598
  Link_07303                   7.985
  Link_07306                   7.979
  Link_07321                  10.213
  Link_07464                  18.926
  Link_07578                  22.388
  Link_07579                 286.097
  Link_07580                 257.919
  Link_07687                  17.022
  Link_07865                  10.194
  Link_08891                   9.751
  Link_08912                  30.986
  Link1_to_ChengXi          1541.218
  Link2_to_ChengXi           477.796
  Link3_to_ChengXi           209.665
  Link_to_LaoDongLu          207.263
  Pump_ChengXi1             1066.765
  Pump_ChengXi2              932.647
  Pump_ChengXi3              303.567
  Pump_ChengXi4               44.650
  Pump_LaoDongLu1            111.428
  Pump_LaoDongLu2             92.368
  Pump_LaoDongLu3              9.684
  outfallpump               2239.932
  

  Analysis begun on:  Sat Sep  4 22:59:59 2021
  Analysis ended on:  Sat Sep  4 23:00:00 2021
  Total elapsed time: 00:00:01