
  EPA STORM WATER MANAGEMENT MODEL - VERSION 5.1 (Build 5.3.0.dev0)
  --------------------------------------------------------------

  WARNING 04: minimum elevation drop used for Conduit Link_01776
  WARNING 04: minimum elevation drop used for Conduit Link_01779
  WARNING 04: minimum elevation drop used for Conduit Link_07234
  WARNING 02: maximum depth increased for Node Node_06087
  
  *********************************************************
  NOTE: The summary statistics displayed in this report are
  based on results found at every computational time step,  
  not just on results from each reporting time step.
  *********************************************************
  
  ****************
  Analysis Options
  ****************
  Flow Units ............... CMS
  Process Models:
    Rainfall/Runoff ........ YES
    RDII ................... NO
    Snowmelt ............... NO
    Groundwater ............ NO
    Flow Routing ........... YES
    Ponding Allowed ........ YES
    Water Quality .......... YES
  Infiltration Method ...... HORTON
  Flow Routing Method ...... DYNWAVE
  Surcharge Method ......... EXTRAN
  Starting Date ............ 01/02/2011 00:00:00
  Ending Date .............. 01/02/2011 06:00:00
  Antecedent Dry Days ...... 0.0
  Report Time Step ......... 00:15:00
  Wet Time Step ............ 00:05:00
  Dry Time Step ............ 01:00:00
  Routing Time Step ........ 60.00 sec
  Variable Time Step ....... YES
  Maximum Trials ........... 8
  Number of Threads ........ 4
  Head Tolerance ........... 0.001500 m
  
  
  **************************        Volume         Depth
  Runoff Quantity Continuity     hectare-m            mm
  **************************     ---------       -------
  Total Precipitation ......         1.645        57.500
  Evaporation Loss .........         0.000         0.000
  Infiltration Loss ........         0.050         1.751
  Surface Runoff ...........         1.596        55.819
  Final Storage ............         0.000         0.009
  Continuity Error (%) .....        -0.138
  
  
  **************************           COD
  Runoff Quality Continuity             kg
  **************************    ----------
  Initial Buildup ..........         0.000
  Surface Buildup ..........         0.000
  Wet Deposition ...........      4325.060
  Sweeping Removal .........         0.000
  Infiltration Loss ........       131.727
  BMP Removal ..............         0.000
  Surface Runoff ...........      4198.608
  Remaining Buildup ........         0.706
  Continuity Error (%) .....        -0.138
  
  
  **************************        Volume        Volume
  Flow Routing Continuity        hectare-m      10^6 ltr
  **************************     ---------     ---------
  Dry Weather Inflow .......         0.153         1.529
  Wet Weather Inflow .......         1.596        15.964
  Groundwater Inflow .......         0.000         0.000
  RDII Inflow ..............         0.000         0.000
  External Inflow ..........         0.000         0.000
  External Outflow .........         0.684         6.839
  Flooding Loss ............         1.038        10.376
  Evaporation Loss .........         0.000         0.000
  Exfiltration Loss ........         0.000         0.000
  Initial Stored Volume ....         0.077         0.773
  Final Stored Volume ......         0.253         2.529
  Continuity Error (%) .....        -8.090
  
  
  **************************           COD
  Quality Routing Continuity            kg
  **************************    ----------
  Dry Weather Inflow .......       845.606
  Wet Weather Inflow .......      4198.592
  Groundwater Inflow .......         0.000
  RDII Inflow ..............         0.000
  External Inflow ..........         0.000
  External Outflow .........      2112.441
  Flooding Loss ............      2748.957
  Exfiltration Loss ........         0.000
  Mass Reacted .............         0.000
  Initial Stored Mass ......       427.257
  Final Stored Mass ........       610.295
  Continuity Error (%) .....        -0.004
  
  
  *************************
  Highest Continuity Errors
  *************************
  Node Node_04713 (-57.79%)
  Node Node_04714 (-27.66%)
  Node Node_07272 (-23.44%)
  Node Node_04715 (-16.50%)
  Node Node_04711 (-10.04%)
  
  
  ***************************
  Time-Step Critical Elements
  ***************************
  Link Link_02129 (52.99%)
  Link Link_01778 (38.89%)
  Link Link_01780 (1.06%)
  
  
  ********************************
  Highest Flow Instability Indexes
  ********************************
  Link Link_01558 (86)
  Link Link_01561 (75)
  Link Link_01778 (75)
  Link Link_01325 (71)
  Link Link_01324 (68)
  
  
  *************************
  Routing Time Step Summary
  *************************
  Minimum Time Step           :     5.00 sec
  Average Time Step           :     5.00 sec
  Maximum Time Step           :     5.00 sec
  Percent in Steady State     :     0.00
  Average Iterations per Step :     6.93
  Percent Not Converging      :    70.53
  
  
  ***************************
  Subcatchment Runoff Summary
  ***************************
  
  ------------------------------------------------------------------------------------------------------------------------------
                            Total      Total      Total      Total     Imperv       Perv      Total       Total     Peak  Runoff
                           Precip      Runon       Evap      Infil     Runoff     Runoff     Runoff      Runoff   Runoff   Coeff
  Subcatchment                 mm         mm         mm         mm         mm         mm         mm    10^6 ltr      CMS
  ------------------------------------------------------------------------------------------------------------------------------
  2707                      57.50       0.00       0.00       1.76      14.38      41.44      55.82        0.06     0.01   0.971
  2708                      57.50       0.00       0.00       1.76      14.38      41.44      55.82        0.06     0.01   0.971
  2709                      57.50       0.00       0.00       1.76      14.38      41.44      55.82        0.06     0.01   0.971
  2710                      57.50       0.00       0.00       1.76      14.38      41.44      55.82        0.06     0.01   0.971
  2712                      57.50       0.00       0.00       1.76      14.38      41.44      55.82        0.06     0.01   0.971
  2713                      57.50       0.00       0.00       1.76      14.38      41.44      55.82        0.06     0.01   0.971
  2714                      57.50       0.00       0.00       1.76      14.38      41.44      55.82        0.06     0.01   0.971
  2715                      57.50       0.00       0.00       1.76      14.38      41.44      55.82        0.06     0.01   0.971
  2716                      57.50       0.00       0.00       1.76      14.38      41.44      55.82        0.06     0.01   0.971
  2717                      57.50       0.00       0.00       1.76      14.38      41.44      55.82        0.06     0.01   0.971
  2718                      57.50       0.00       0.00       1.76      14.38      41.44      55.82        0.06     0.01   0.971
  2719                      57.50       0.00       0.00       1.76      14.38      41.44      55.82        0.06     0.01   0.971
  2721                      57.50       0.00       0.00       1.76      14.38      41.44      55.82        0.06     0.01   0.971
  2722                      57.50       0.00       0.00       1.76      14.38      41.44      55.82        0.06     0.01   0.971
  2723                      57.50       0.00       0.00       1.76      14.38      41.44      55.82        0.06     0.01   0.971
  2724                      57.50       0.00       0.00       1.76      14.38      41.44      55.82        0.06     0.01   0.971
  2725                      57.50       0.00       0.00       1.76      14.38      41.44      55.82        0.06     0.01   0.971
  2726                      57.50       0.00       0.00       1.76      14.38      41.44      55.82        0.06     0.01   0.971
  2727                      57.50       0.00       0.00       1.76      14.38      41.44      55.82        0.06     0.01   0.971
  2728                      57.50       0.00       0.00       1.76      14.38      41.44      55.82        0.06     0.01   0.971
  2729                      57.50       0.00       0.00       1.76      14.38      41.44      55.82        0.06     0.01   0.971
  2730                      57.50       0.00       0.00       1.76      14.38      41.44      55.82        0.06     0.01   0.971
  2731                      57.50       0.00       0.00       1.76      14.38      41.44      55.82        0.06     0.01   0.971
  2732                      57.50       0.00       0.00       1.76      14.38      41.44      55.82        0.06     0.01   0.971
  2733                      57.50       0.00       0.00       1.76      14.38      41.44      55.82        0.06     0.01   0.971
  2734                      57.50       0.00       0.00       1.76      14.38      41.44      55.82        0.06     0.01   0.971
  2735                      57.50       0.00       0.00       1.76      14.38      41.44      55.82        0.06     0.01   0.971
  2736                      57.50       0.00       0.00       1.76      14.38      41.44      55.82        0.06     0.01   0.971
  2737                      57.50       0.00       0.00       1.76      14.38      41.44      55.82        0.06     0.01   0.971
  2738                      57.50       0.00       0.00       1.76      14.38      41.44      55.82        0.06     0.01   0.971
  2739                      57.50       0.00       0.00       1.76      14.38      41.44      55.82        0.06     0.01   0.971
  2740                      57.50       0.00       0.00       1.76      14.38      41.44      55.82        0.06     0.01   0.971
  2741                      57.50       0.00       0.00       1.76      14.38      41.44      55.82        0.06     0.01   0.971
  2742                      57.50       0.00       0.00       1.76      14.38      41.44      55.82        0.06     0.01   0.971
  2743                      57.50       0.00       0.00       1.76      14.38      41.44      55.82        0.06     0.01   0.971
  2744                      57.50       0.00       0.00       1.76      14.38      41.44      55.82        0.06     0.01   0.971
  2745                      57.50       0.00       0.00       1.76      14.38      41.44      55.82        0.06     0.01   0.971
  2746                      57.50       0.00       0.00       1.76      14.38      41.44      55.82        0.06     0.01   0.971
  2747                      57.50       0.00       0.00       1.76      14.38      41.44      55.82        0.06     0.01   0.971
  2748                      57.50       0.00       0.00       1.76      14.38      41.44      55.82        0.06     0.01   0.971
  2749                      57.50       0.00       0.00       1.76      14.38      41.44      55.82        0.06     0.01   0.971
  2750                      57.50       0.00       0.00       1.76      14.38      41.44      55.82        0.06     0.01   0.971
  2751                      57.50       0.00       0.00       1.76      14.38      41.44      55.82        0.06     0.01   0.971
  2752                      57.50       0.00       0.00       1.76      14.38      41.44      55.82        0.06     0.01   0.971
  2753                      57.50       0.00       0.00       1.76      14.38      41.44      55.82        0.06     0.01   0.971
  2754                      57.50       0.00       0.00       1.76      14.38      41.44      55.82        0.06     0.01   0.971
  2755                      57.50       0.00       0.00       1.76      14.38      41.44      55.82        0.06     0.01   0.971
  2756                      57.50       0.00       0.00       1.76      14.38      41.44      55.82        0.06     0.01   0.971
  2964                      57.50       0.00       0.00       1.76      14.38      41.44      55.82        0.06     0.01   0.971
  2969                      57.50       0.00       0.00       1.76      14.38      41.44      55.82        0.06     0.01   0.971
  2970                      57.50       0.00       0.00       1.76      14.38      41.44      55.82        0.06     0.01   0.971
  2974                      57.50       0.00       0.00       1.76      14.38      41.44      55.82        0.06     0.01   0.971
  2975                      57.50       0.00       0.00       1.76      14.38      41.44      55.82        0.06     0.01   0.971
  2976                      57.50       0.00       0.00       1.76      14.38      41.44      55.82        0.06     0.01   0.971
  2977                      57.50       0.00       0.00       1.76      14.38      41.44      55.82        0.06     0.01   0.971
  2978                      57.50       0.00       0.00       1.76      14.38      41.44      55.82        0.06     0.01   0.971
  2979                      57.50       0.00       0.00       1.76      14.38      41.44      55.82        0.06     0.01   0.971
  2980                      57.50       0.00       0.00       1.76      14.38      41.44      55.82        0.06     0.01   0.971
  2981                      57.50       0.00       0.00       1.76      14.38      41.44      55.82        0.06     0.01   0.971
  2982                      57.50       0.00       0.00       1.76      14.38      41.44      55.82        0.06     0.01   0.971
  2984                      57.50       0.00       0.00       1.76      14.38      41.44      55.82        0.06     0.01   0.971
  2985                      57.50       0.00       0.00       1.76      14.38      41.44      55.82        0.06     0.01   0.971
  3925                      57.50       0.00       0.00       1.76      14.38      41.44      55.82        0.06     0.01   0.971
  3926                      57.50       0.00       0.00       1.76      14.38      41.44      55.82        0.06     0.01   0.971
  3927                      57.50       0.00       0.00       1.76      14.38      41.44      55.82        0.06     0.01   0.971
  3928                      57.50       0.00       0.00       1.76      14.38      41.44      55.82        0.06     0.01   0.971
  3929                      57.50       0.00       0.00       1.76      14.38      41.44      55.82        0.06     0.01   0.971
  3930                      57.50       0.00       0.00       1.76      14.38      41.44      55.82        0.06     0.01   0.971
  3931                      57.50       0.00       0.00       1.76      14.38      41.44      55.82        0.06     0.01   0.971
  3932                      57.50       0.00       0.00       1.76      14.38      41.44      55.82        0.06     0.01   0.971
  3933                      57.50       0.00       0.00       1.76      14.38      41.44      55.82        0.06     0.01   0.971
  3934                      57.50       0.00       0.00       1.76      14.38      41.44      55.82        0.06     0.01   0.971
  3935                      57.50       0.00       0.00       1.76      14.38      41.44      55.82        0.06     0.01   0.971
  3936                      57.50       0.00       0.00       1.76      14.38      41.44      55.82        0.06     0.01   0.971
  3937                      57.50       0.00       0.00       1.76      14.38      41.44      55.82        0.06     0.01   0.971
  3938                      57.50       0.00       0.00       1.76      14.38      41.44      55.82        0.06     0.01   0.971
  3939                      57.50       0.00       0.00       1.76      14.38      41.44      55.82        0.06     0.01   0.971
  3940                      57.50       0.00       0.00       1.76      14.38      41.44      55.82        0.06     0.01   0.971
  3941                      57.50       0.00       0.00       1.76      14.38      41.44      55.82        0.06     0.01   0.971
  3942                      57.50       0.00       0.00       1.76      14.38      41.44      55.82        0.06     0.01   0.971
  3943                      57.50       0.00       0.00       1.76      14.38      41.44      55.82        0.06     0.01   0.971
  3944                      57.50       0.00       0.00       1.76      14.38      41.44      55.82        0.06     0.01   0.971
  3945                      57.50       0.00       0.00       1.76      14.38      41.44      55.82        0.06     0.01   0.971
  3946                      57.50       0.00       0.00       1.76      14.38      41.44      55.82        0.06     0.01   0.971
  3947                      57.50       0.00       0.00       1.76      14.38      41.44      55.82        0.06     0.01   0.971
  3948                      57.50       0.00       0.00       1.76      14.38      41.44      55.82        0.06     0.01   0.971
  3949                      57.50       0.00       0.00       1.76      14.38      41.44      55.82        0.06     0.01   0.971
  3950                      57.50       0.00       0.00       1.76      14.38      41.44      55.82        0.06     0.01   0.971
  3951                      57.50       0.00       0.00       1.76      14.38      41.44      55.82        0.06     0.01   0.971
  3952                      57.50       0.00       0.00       1.76      14.38      41.44      55.82        0.06     0.01   0.971
  3953                      57.50       0.00       0.00       1.76      14.38      41.44      55.82        0.06     0.01   0.971
  3954                      57.50       0.00       0.00       1.76      14.38      41.44      55.82        0.06     0.01   0.971
  3955                      57.50       0.00       0.00       1.76      14.38      41.44      55.82        0.06     0.01   0.971
  3956                      57.50       0.00       0.00       1.76      14.38      41.44      55.82        0.06     0.01   0.971
  4032                      57.50       0.00       0.00       1.76      14.38      41.44      55.82        0.06     0.01   0.971
  4033                      57.50       0.00       0.00       1.76      14.38      41.44      55.82        0.06     0.01   0.971
  4041                      57.50       0.00       0.00       1.76      14.38      41.44      55.82        0.06     0.01   0.971
  4051                      57.50       0.00       0.00       1.76      14.38      41.44      55.82        0.06     0.01   0.971
  4055                      57.50       0.00       0.00       1.76      14.38      41.44      55.82        0.06     0.01   0.971
  4056                      57.50       0.00       0.00       1.76      14.38      41.44      55.82        0.06     0.01   0.971
  4058                      57.50       0.00       0.00       1.76      14.38      41.44      55.82        0.06     0.01   0.971
  4385                      57.50       0.00       0.00       1.76      14.38      41.44      55.82        0.06     0.01   0.971
  4386                      57.50       0.00       0.00       1.76      14.38      41.44      55.82        0.06     0.01   0.971
  4387                      57.50       0.00       0.00       1.76      14.38      41.44      55.82        0.06     0.01   0.971
  4388                      57.50       0.00       0.00       1.76      14.38      41.44      55.82        0.06     0.01   0.971
  4389                      57.50       0.00       0.00       1.76      14.38      41.44      55.82        0.06     0.01   0.971
  4390                      57.50       0.00       0.00       1.76      14.38      41.44      55.82        0.06     0.01   0.971
  4391                      57.50       0.00       0.00       1.76      14.38      41.44      55.82        0.06     0.01   0.971
  4392                      57.50       0.00       0.00       1.76      14.38      41.44      55.82        0.06     0.01   0.971
  4393                      57.50       0.00       0.00       1.76      14.38      41.44      55.82        0.06     0.01   0.971
  4394                      57.50       0.00       0.00       1.76      14.38      41.44      55.82        0.06     0.01   0.971
  4395                      57.50       0.00       0.00       1.76      14.38      41.44      55.82        0.06     0.01   0.971
  4396                      57.50       0.00       0.00       1.76      14.38      41.44      55.82        0.06     0.01   0.971
  4397                      57.50       0.00       0.00       1.76      14.38      41.44      55.82        0.06     0.01   0.971
  4398                      57.50       0.00       0.00       1.76      14.38      41.44      55.82        0.06     0.01   0.971
  4429                      57.50       0.00       0.00       1.76      14.38      41.44      55.82        0.06     0.01   0.971
  4430                      57.50       0.00       0.00       1.76      14.38      41.44      55.82        0.06     0.01   0.971
  4431                      57.50       0.00       0.00       1.76      14.38      41.44      55.82        0.06     0.01   0.971
  4432                      57.50       0.00       0.00       1.76      14.38      41.44      55.82        0.06     0.01   0.971
  4433                      57.50       0.00       0.00       1.76      14.38      41.44      55.82        0.06     0.01   0.971
  4434                      57.50       0.00       0.00       1.76      14.38      41.44      55.82        0.06     0.01   0.971
  4435                      57.50       0.00       0.00       1.76      14.38      41.44      55.82        0.06     0.01   0.971
  4436                      57.50       0.00       0.00       1.76      14.38      41.44      55.82        0.06     0.01   0.971
  4437                      57.50       0.00       0.00       1.76      14.38      41.44      55.82        0.06     0.01   0.971
  4438                      57.50       0.00       0.00       1.76      14.38      41.44      55.82        0.06     0.01   0.971
  4439                      57.50       0.00       0.00       1.76      14.38      41.44      55.82        0.06     0.01   0.971
  4440                      57.50       0.00       0.00       1.76      14.38      41.44      55.82        0.06     0.01   0.971
  4441                      57.50       0.00       0.00       1.76      14.38      41.44      55.82        0.06     0.01   0.971
  4442                      57.50       0.00       0.00       1.76      14.38      41.44      55.82        0.06     0.01   0.971
  4443                      57.50       0.00       0.00       1.76      14.38      41.44      55.82        0.06     0.01   0.971
  4444                      57.50       0.00       0.00       1.76      14.38      41.44      55.82        0.06     0.01   0.971
  4445                      57.50       0.00       0.00       1.76      14.38      41.44      55.82        0.06     0.01   0.971
  4446                      57.50       0.00       0.00       1.76      14.38      41.44      55.82        0.06     0.01   0.971
  4447                      57.50       0.00       0.00       1.76      14.38      41.44      55.82        0.06     0.01   0.971
  4448                      57.50       0.00       0.00       1.76      14.38      41.44      55.82        0.06     0.01   0.971
  4449                      57.50       0.00       0.00       1.76      14.38      41.44      55.82        0.06     0.01   0.971
  4450                      57.50       0.00       0.00       1.76      14.38      41.44      55.82        0.06     0.01   0.971
  4451                      57.50       0.00       0.00       1.76      14.38      41.44      55.82        0.06     0.01   0.971
  4452                      57.50       0.00       0.00       1.76      14.38      41.44      55.82        0.06     0.01   0.971
  4453                      57.50       0.00       0.00       1.76      14.38      41.44      55.82        0.06     0.01   0.971
  4454                      57.50       0.00       0.00       1.76      14.38      41.44      55.82        0.06     0.01   0.971
  4462                      57.50       0.00       0.00       1.76      14.38      41.44      55.82        0.06     0.01   0.971
  4463                      57.50       0.00       0.00       1.76      14.38      41.44      55.82        0.06     0.01   0.971
  4563                      57.50       0.00       0.00       1.76      14.38      41.44      55.82        0.06     0.01   0.971
  4564                      57.50       0.00       0.00       1.76      14.38      41.44      55.82        0.06     0.01   0.971
  4565                      57.50       0.00       0.00       1.76      14.38      41.44      55.82        0.06     0.01   0.971
  4566                      57.50       0.00       0.00       1.76      14.38      41.44      55.82        0.06     0.01   0.971
  4567                      57.50       0.00       0.00       1.76      14.38      41.44      55.82        0.06     0.01   0.971
  4568                      57.50       0.00       0.00       1.76      14.38      41.44      55.82        0.06     0.01   0.971
  4569                      57.50       0.00       0.00       1.76      14.38      41.44      55.82        0.06     0.01   0.971
  4570                      57.50       0.00       0.00       1.76      14.38      41.44      55.82        0.06     0.01   0.971
  4571                      57.50       0.00       0.00       1.76      14.38      41.44      55.82        0.06     0.01   0.971
  4572                      57.50       0.00       0.00       1.76      14.38      41.44      55.82        0.06     0.01   0.971
  4573                      57.50       0.00       0.00       1.76      14.38      41.44      55.82        0.06     0.01   0.971
  4574                      57.50       0.00       0.00       1.76      14.38      41.44      55.82        0.06     0.01   0.971
  4575                      57.50       0.00       0.00       1.76      14.38      41.44      55.82        0.06     0.01   0.971
  4576                      57.50       0.00       0.00       1.76      14.38      41.44      55.82        0.06     0.01   0.971
  4577                      57.50       0.00       0.00       1.76      14.38      41.44      55.82        0.06     0.01   0.971
  4578                      57.50       0.00       0.00       1.76      14.38      41.44      55.82        0.06     0.01   0.971
  4579                      57.50       0.00       0.00       1.76      14.38      41.44      55.82        0.06     0.01   0.971
  4580                      57.50       0.00       0.00       1.76      14.38      41.44      55.82        0.06     0.01   0.971
  4581                      57.50       0.00       0.00       1.76      14.38      41.44      55.82        0.06     0.01   0.971
  4624                      57.50       0.00       0.00       1.76      14.38      41.44      55.82        0.06     0.01   0.971
  4625                      57.50       0.00       0.00       1.76      14.38      41.44      55.82        0.06     0.01   0.971
  4644                      57.50       0.00       0.00       1.76      14.38      41.44      55.82        0.06     0.01   0.971
  4645                      57.50       0.00       0.00       1.76      14.38      41.44      55.82        0.06     0.01   0.971
  4646                      57.50       0.00       0.00       1.76      14.38      41.44      55.82        0.06     0.01   0.971
  4679                      57.50       0.00       0.00       1.76      14.38      41.44      55.82        0.06     0.01   0.971
  4680                      57.50       0.00       0.00       1.76      14.38      41.44      55.82        0.06     0.01   0.971
  4681                      57.50       0.00       0.00       1.76      14.38      41.44      55.82        0.06     0.01   0.971
  4682                      57.50       0.00       0.00       1.76      14.38      41.44      55.82        0.06     0.01   0.971
  4683                      57.50       0.00       0.00       1.76      14.38      41.44      55.82        0.06     0.01   0.971
  4711                      57.50       0.00       0.00       1.76      14.38      41.44      55.82        0.06     0.01   0.971
  4712                      57.50       0.00       0.00       1.76      14.38      41.44      55.82        0.06     0.01   0.971
  4713                      57.50       0.00       0.00       1.76      14.38      41.44      55.82        0.06     0.01   0.971
  4714                      57.50       0.00       0.00       1.76      14.38      41.44      55.82        0.06     0.01   0.971
  4715                      57.50       0.00       0.00       1.76      14.38      41.44      55.82        0.06     0.01   0.971
  4716                      57.50       0.00       0.00       1.76      14.38      41.44      55.82        0.06     0.01   0.971
  4717                      57.50       0.00       0.00       1.76      14.38      41.44      55.82        0.06     0.01   0.971
  4718                      57.50       0.00       0.00       1.76      14.38      41.44      55.82        0.06     0.01   0.971
  4722                      57.50       0.00       0.00       1.76      14.38      41.44      55.82        0.06     0.01   0.971
  4760                      57.50       0.00       0.00       1.76      14.38      41.44      55.82        0.06     0.01   0.971
  4761                      57.50       0.00       0.00       1.76      14.38      41.44      55.82        0.06     0.01   0.971
  4765                      57.50       0.00       0.00       1.76      14.38      41.44      55.82        0.06     0.01   0.971
  4766                      57.50       0.00       0.00       1.76      14.38      41.44      55.82        0.06     0.01   0.971
  4767                      57.50       0.00       0.00       1.76      14.38      41.44      55.82        0.06     0.01   0.971
  4768                      57.50       0.00       0.00       1.76      14.38      41.44      55.82        0.06     0.01   0.971
  4769                      57.50       0.00       0.00       1.76      14.38      41.44      55.82        0.06     0.01   0.971
  4855                      57.50       0.00       0.00       1.76      14.38      41.44      55.82        0.06     0.01   0.971
  4856                      57.50       0.00       0.00       1.76      14.38      41.44      55.82        0.06     0.01   0.971
  5284                      57.50       0.00       0.00       1.76      14.38      41.44      55.82        0.06     0.01   0.971
  5285                      57.50       0.00       0.00       1.76      14.38      41.44      55.82        0.06     0.01   0.971
  5286                      57.50       0.00       0.00       1.76      14.38      41.44      55.82        0.06     0.01   0.971
  5287                      57.50       0.00       0.00       1.76      14.38      41.44      55.82        0.06     0.01   0.971
  5288                      57.50       0.00       0.00       1.76      14.38      41.44      55.82        0.06     0.01   0.971
  5289                      57.50       0.00       0.00       1.76      14.38      41.44      55.82        0.06     0.01   0.971
  5290                      57.50       0.00       0.00       1.76      14.38      41.44      55.82        0.06     0.01   0.971
  5291                      57.50       0.00       0.00       1.76      14.38      41.44      55.82        0.06     0.01   0.971
  5292                      57.50       0.00       0.00       1.76      14.38      41.44      55.82        0.06     0.01   0.971
  5293                      57.50       0.00       0.00       1.76      14.38      41.44      55.82        0.06     0.01   0.971
  5294                      57.50       0.00       0.00       1.76      14.38      41.44      55.82        0.06     0.01   0.971
  5295                      57.50       0.00       0.00       1.76      14.38      41.44      55.82        0.06     0.01   0.971
  5296                      57.50       0.00       0.00       1.76      14.38      41.44      55.82        0.06     0.01   0.971
  5297                      57.50       0.00       0.00       1.76      14.38      41.44      55.82        0.06     0.01   0.971
  5298                      57.50       0.00       0.00       1.76      14.38      41.44      55.82        0.06     0.01   0.971
  5299                      57.50       0.00       0.00       1.76      14.38      41.44      55.82        0.06     0.01   0.971
  5300                      57.50       0.00       0.00       1.76      14.38      41.44      55.82        0.06     0.01   0.971
  5301                      57.50       0.00       0.00       1.76      14.38      41.44      55.82        0.06     0.01   0.971
  5302                      57.50       0.00       0.00       1.76      14.38      41.44      55.82        0.06     0.01   0.971
  5303                      57.50       0.00       0.00       1.76      14.38      41.44      55.82        0.06     0.01   0.971
  5304                      57.50       0.00       0.00       1.76      14.38      41.44      55.82        0.06     0.01   0.971
  5305                      57.50       0.00       0.00       1.76      14.38      41.44      55.82        0.06     0.01   0.971
  5306                      57.50       0.00       0.00       1.76      14.38      41.44      55.82        0.06     0.01   0.971
  5307                      57.50       0.00       0.00       1.76      14.38      41.44      55.82        0.06     0.01   0.971
  5308                      57.50       0.00       0.00       1.76      14.38      41.44      55.82        0.06     0.01   0.971
  5309                      57.50       0.00       0.00       1.76      14.38      41.44      55.82        0.06     0.01   0.971
  5310                      57.50       0.00       0.00       1.76      14.38      41.44      55.82        0.06     0.01   0.971
  5311                      57.50       0.00       0.00       1.76      14.38      41.44      55.82        0.06     0.01   0.971
  5312                      57.50       0.00       0.00       1.76      14.38      41.44      55.82        0.06     0.01   0.971
  5313                      57.50       0.00       0.00       1.76      14.38      41.44      55.82        0.06     0.01   0.971
  5314                      57.50       0.00       0.00       1.76      14.38      41.44      55.82        0.06     0.01   0.971
  5315                      57.50       0.00       0.00       1.76      14.38      41.44      55.82        0.06     0.01   0.971
  5316                      57.50       0.00       0.00       1.76      14.38      41.44      55.82        0.06     0.01   0.971
  5317                      57.50       0.00       0.00       1.76      14.38      41.44      55.82        0.06     0.01   0.971
  5318                      57.50       0.00       0.00       1.76      14.38      41.44      55.82        0.06     0.01   0.971
  5319                      57.50       0.00       0.00       1.76      14.38      41.44      55.82        0.06     0.01   0.971
  5320                      57.50       0.00       0.00       1.76      14.38      41.44      55.82        0.06     0.01   0.971
  5321                      57.50       0.00       0.00       1.76      14.38      41.44      55.82        0.06     0.01   0.971
  5322                      57.50       0.00       0.00       1.76      14.38      41.44      55.82        0.06     0.01   0.971
  5323                      57.50       0.00       0.00       1.76      14.38      41.44      55.82        0.06     0.01   0.971
  5324                      57.50       0.00       0.00       1.76      14.38      41.44      55.82        0.06     0.01   0.971
  5325                      57.50       0.00       0.00       1.76      14.38      41.44      55.82        0.06     0.01   0.971
  5326                      57.50       0.00       0.00       1.76      14.38      41.44      55.82        0.06     0.01   0.971
  5327                      57.50       0.00       0.00       1.76      14.38      41.44      55.82        0.06     0.01   0.971
  5328                      57.50       0.00       0.00       1.76      14.38      41.44      55.82        0.06     0.01   0.971
  5329                      57.50       0.00       0.00       1.76      14.38      41.44      55.82        0.06     0.01   0.971
  5330                      57.50       0.00       0.00       1.76      14.38      41.44      55.82        0.06     0.01   0.971
  5333                      57.50       0.00       0.00       1.76      14.38      41.44      55.82        0.06     0.01   0.971
  5334                      57.50       0.00       0.00       1.76      14.38      41.44      55.82        0.06     0.01   0.971
  6040                      57.50       0.00       0.00       1.76      14.38      41.44      55.82        0.06     0.01   0.971
  6041                      57.50       0.00       0.00       1.76      14.38      41.44      55.82        0.06     0.01   0.971
  6162                      57.50       0.00       0.00       1.76      14.38      41.44      55.82        0.06     0.01   0.971
  7207                      57.50       0.00       0.00       1.76      14.38      41.44      55.82        0.06     0.01   0.971
  7208                      57.50       0.00       0.00       1.76      14.38      41.44      55.82        0.06     0.01   0.971
  7213                      57.50       0.00       0.00       1.76      14.38      41.44      55.82        0.06     0.01   0.971
  7214                      57.50       0.00       0.00       1.76      14.38      41.44      55.82        0.06     0.01   0.971
  7219                      57.50       0.00       0.00       1.76      14.38      41.44      55.82        0.06     0.01   0.971
  7220                      57.50       0.00       0.00       1.76      14.38      41.44      55.82        0.06     0.01   0.971
  7221                      57.50       0.00       0.00       1.76      14.38      41.44      55.82        0.06     0.01   0.971
  7225                      57.50       0.00       0.00       1.76      14.38      41.44      55.82        0.06     0.01   0.971
  7229                      57.50       0.00       0.00       1.76      14.38      41.44      55.82        0.06     0.01   0.971
  7231                      57.50       0.00       0.00       1.76      14.38      41.44      55.82        0.06     0.01   0.971
  7268                      57.50       0.00       0.00       1.76      14.38      41.44      55.82        0.06     0.01   0.971
  7269                      57.50       0.00       0.00       1.76      14.38      41.44      55.82        0.06     0.01   0.971
  7271                      57.50       0.00       0.00       1.76      14.38      41.44      55.82        0.06     0.01   0.971
  7272                      57.50       0.00       0.00       1.76      14.38      41.44      55.82        0.06     0.01   0.971
  7273                      57.50       0.00       0.00       1.76      14.38      41.44      55.82        0.06     0.01   0.971
  7433                      57.50       0.00       0.00       1.76      14.38      41.44      55.82        0.06     0.01   0.971
  7434                      57.50       0.00       0.00       1.76      14.38      41.44      55.82        0.06     0.01   0.971
  7544                      57.50       0.00       0.00       1.76      14.38      41.44      55.82        0.06     0.01   0.971
  7545                      57.50       0.00       0.00       1.76      14.38      41.44      55.82        0.06     0.01   0.971
  8737                      57.50       0.00       0.00       1.76      14.38      41.44      55.82        0.06     0.01   0.971
  8818                      57.50       0.00       0.00       1.76      14.38      41.44      55.82        0.06     0.01   0.971
  9942                      57.50       0.00       0.00       1.76      14.38      41.44      55.82        0.06     0.01   0.971
  9957                      57.50       0.00       0.00       1.76      14.38      41.44      55.82        0.06     0.01   0.971
  4399                      57.50       0.00       0.00       1.69      14.37      41.49      55.86        0.02     0.00   0.972
  4400                      57.50       0.00       0.00       1.69      14.37      41.49      55.86        0.02     0.00   0.972
  4401                      57.50       0.00       0.00       1.69      14.37      41.49      55.86        0.02     0.00   0.972
  4402                      57.50       0.00       0.00       1.69      14.37      41.49      55.86        0.02     0.00   0.972
  4403                      57.50       0.00       0.00       1.69      14.37      41.49      55.86        0.02     0.00   0.972
  4404                      57.50       0.00       0.00       1.69      14.37      41.49      55.86        0.02     0.00   0.972
  4405                      57.50       0.00       0.00       1.69      14.37      41.49      55.86        0.02     0.00   0.972
  4406                      57.50       0.00       0.00       1.69      14.37      41.49      55.86        0.02     0.00   0.972
  4407                      57.50       0.00       0.00       1.69      14.37      41.49      55.86        0.02     0.00   0.972
  4408                      57.50       0.00       0.00       1.69      14.37      41.49      55.86        0.02     0.00   0.972
  4409                      57.50       0.00       0.00       1.69      14.37      41.49      55.86        0.02     0.00   0.972
  4410                      57.50       0.00       0.00       1.69      14.37      41.49      55.86        0.02     0.00   0.972
  4411                      57.50       0.00       0.00       1.69      14.37      41.49      55.86        0.02     0.00   0.972
  4412                      57.50       0.00       0.00       1.69      14.37      41.49      55.86        0.02     0.00   0.972
  4423                      57.50       0.00       0.00       1.69      14.37      41.49      55.86        0.02     0.00   0.972
  4424                      57.50       0.00       0.00       1.69      14.37      41.49      55.86        0.02     0.00   0.972
  4425                      57.50       0.00       0.00       1.69      14.37      41.49      55.86        0.02     0.00   0.972
  4426                      57.50       0.00       0.00       1.69      14.37      41.49      55.86        0.02     0.00   0.972
  4427                      57.50       0.00       0.00       1.69      14.37      41.49      55.86        0.02     0.00   0.972
  4428                      57.50       0.00       0.00       1.69      14.37      41.49      55.86        0.02     0.00   0.972
  4455                      57.50       0.00       0.00       1.69      14.37      41.49      55.86        0.02     0.00   0.972
  4456                      57.50       0.00       0.00       1.69      14.37      41.49      55.86        0.02     0.00   0.972
  4457                      57.50       0.00       0.00       1.69      14.37      41.49      55.86        0.02     0.00   0.972
  4458                      57.50       0.00       0.00       1.69      14.37      41.49      55.86        0.02     0.00   0.972
  4459                      57.50       0.00       0.00       1.69      14.37      41.49      55.86        0.02     0.00   0.972
  4460                      57.50       0.00       0.00       1.69      14.37      41.49      55.86        0.02     0.00   0.972
  4461                      57.50       0.00       0.00       1.69      14.37      41.49      55.86        0.02     0.00   0.972
  4464                      57.50       0.00       0.00       1.69      14.37      41.49      55.86        0.02     0.00   0.972
  4465                      57.50       0.00       0.00       1.69      14.37      41.49      55.86        0.02     0.00   0.972
  4466                      57.50       0.00       0.00       1.69      14.37      41.49      55.86        0.02     0.00   0.972
  4467                      57.50       0.00       0.00       1.69      14.37      41.49      55.86        0.02     0.00   0.972
  4468                      57.50       0.00       0.00       1.69      14.37      41.49      55.86        0.02     0.00   0.972
  4469                      57.50       0.00       0.00       1.69      14.37      41.49      55.86        0.02     0.00   0.972
  4470                      57.50       0.00       0.00       1.69      14.37      41.49      55.86        0.02     0.00   0.972
  4471                      57.50       0.00       0.00       1.69      14.37      41.49      55.86        0.02     0.00   0.972
  4472                      57.50       0.00       0.00       1.69      14.37      41.49      55.86        0.02     0.00   0.972
  4473                      57.50       0.00       0.00       1.69      14.37      41.49      55.86        0.02     0.00   0.972
  4474                      57.50       0.00       0.00       1.69      14.37      41.49      55.86        0.02     0.00   0.972
  4628                      57.50       0.00       0.00       1.69      14.37      41.49      55.86        0.02     0.00   0.972
  4631                      57.50       0.00       0.00       1.69      14.37      41.49      55.86        0.02     0.00   0.972
  4632                      57.50       0.00       0.00       1.69      14.37      41.49      55.86        0.02     0.00   0.972
  4633                      57.50       0.00       0.00       1.69      14.37      41.49      55.86        0.02     0.00   0.972
  4634                      57.50       0.00       0.00       1.69      14.37      41.49      55.86        0.02     0.00   0.972
  4637                      57.50       0.00       0.00       1.69      14.37      41.49      55.86        0.02     0.00   0.972
  4686                      57.50       0.00       0.00       1.69      14.37      41.49      55.86        0.02     0.00   0.972
  4687                      57.50       0.00       0.00       1.69      14.37      41.49      55.86        0.02     0.00   0.972
  4688                      57.50       0.00       0.00       1.69      14.37      41.49      55.86        0.02     0.00   0.972
  5032                      57.50       0.00       0.00       1.69      14.37      41.49      55.86        0.02     0.00   0.972
  5331                      57.50       0.00       0.00       1.69      14.37      41.49      55.86        0.02     0.00   0.972
  5332                      57.50       0.00       0.00       1.69      14.37      41.49      55.86        0.02     0.00   0.972
  5335                      57.50       0.00       0.00       1.69      14.37      41.49      55.86        0.02     0.00   0.972
  5336                      57.50       0.00       0.00       1.69      14.37      41.49      55.86        0.02     0.00   0.972
  5337                      57.50       0.00       0.00       1.69      14.37      41.49      55.86        0.02     0.00   0.972
  5338                      57.50       0.00       0.00       1.69      14.37      41.49      55.86        0.02     0.00   0.972
  5339                      57.50       0.00       0.00       1.69      14.37      41.49      55.86        0.02     0.00   0.972
  5340                      57.50       0.00       0.00       1.69      14.37      41.49      55.86        0.02     0.00   0.972
  5341                      57.50       0.00       0.00       1.69      14.37      41.49      55.86        0.02     0.00   0.972
  5342                      57.50       0.00       0.00       1.69      14.37      41.49      55.86        0.02     0.00   0.972
  5343                      57.50       0.00       0.00       1.69      14.37      41.49      55.86        0.02     0.00   0.972
  5344                      57.50       0.00       0.00       1.69      14.37      41.49      55.86        0.02     0.00   0.972
  5345                      57.50       0.00       0.00       1.69      14.37      41.49      55.86        0.02     0.00   0.972
  5346                      57.50       0.00       0.00       1.69      14.37      41.49      55.86        0.02     0.00   0.972
  5347                      57.50       0.00       0.00       1.69      14.37      41.49      55.86        0.02     0.00   0.972
  5348                      57.50       0.00       0.00       1.69      14.37      41.49      55.86        0.02     0.00   0.972
  5349                      57.50       0.00       0.00       1.69      14.37      41.49      55.86        0.02     0.00   0.972
  5350                      57.50       0.00       0.00       1.69      14.37      41.49      55.86        0.02     0.00   0.972
  6088                      57.50       0.00       0.00       1.69      14.37      41.49      55.86        0.02     0.00   0.972
  7275                      57.50       0.00       0.00       1.69      14.37      41.49      55.86        0.02     0.00   0.972
  9955                      57.50       0.00       0.00       1.69      14.37      41.49      55.86        0.02     0.00   0.972
  9956                      57.50       0.00       0.00       1.69      14.37      41.49      55.86        0.02     0.00   0.972
  
  
  ****************************
  Subcatchment Washoff Summary
  ****************************
  
  ----------------------------------
                                 COD
  Subcatchment                    kg
  ----------------------------------
  2707                        14.680
  2708                        14.680
  2709                        14.680
  2710                        14.680
  2712                        14.680
  2713                        14.680
  2714                        14.680
  2715                        14.680
  2716                        14.680
  2717                        14.680
  2718                        14.680
  2719                        14.680
  2721                        14.680
  2722                        14.680
  2723                        14.680
  2724                        14.680
  2725                        14.680
  2726                        14.680
  2727                        14.680
  2728                        14.680
  2729                        14.680
  2730                        14.680
  2731                        14.680
  2732                        14.680
  2733                        14.680
  2734                        14.680
  2735                        14.680
  2736                        14.680
  2737                        14.680
  2738                        14.680
  2739                        14.680
  2740                        14.680
  2741                        14.680
  2742                        14.680
  2743                        14.680
  2744                        14.680
  2745                        14.680
  2746                        14.680
  2747                        14.680
  2748                        14.680
  2749                        14.680
  2750                        14.680
  2751                        14.680
  2752                        14.680
  2753                        14.680
  2754                        14.680
  2755                        14.680
  2756                        14.680
  2964                        14.680
  2969                        14.680
  2970                        14.680
  2974                        14.680
  2975                        14.680
  2976                        14.680
  2977                        14.680
  2978                        14.680
  2979                        14.680
  2980                        14.680
  2981                        14.680
  2982                        14.680
  2984                        14.680
  2985                        14.680
  3925                        14.680
  3926                        14.680
  3927                        14.680
  3928                        14.680
  3929                        14.680
  3930                        14.680
  3931                        14.680
  3932                        14.680
  3933                        14.680
  3934                        14.680
  3935                        14.680
  3936                        14.680
  3937                        14.680
  3938                        14.680
  3939                        14.680
  3940                        14.680
  3941                        14.680
  3942                        14.680
  3943                        14.680
  3944                        14.680
  3945                        14.680
  3946                        14.680
  3947                        14.680
  3948                        14.680
  3949                        14.680
  3950                        14.680
  3951                        14.680
  3952                        14.680
  3953                        14.680
  3954                        14.680
  3955                        14.680
  3956                        14.680
  4032                        14.680
  4033                        14.680
  4041                        14.680
  4051                        14.680
  4055                        14.680
  4056                        14.680
  4058                        14.680
  4385                        14.680
  4386                        14.680
  4387                        14.680
  4388                        14.680
  4389                        14.680
  4390                        14.680
  4391                        14.680
  4392                        14.680
  4393                        14.680
  4394                        14.680
  4395                        14.680
  4396                        14.680
  4397                        14.680
  4398                        14.680
  4429                        14.680
  4430                        14.680
  4431                        14.680
  4432                        14.680
  4433                        14.680
  4434                        14.680
  4435                        14.680
  4436                        14.680
  4437                        14.680
  4438                        14.680
  4439                        14.680
  4440                        14.680
  4441                        14.680
  4442                        14.680
  4443                        14.680
  4444                        14.680
  4445                        14.680
  4446                        14.680
  4447                        14.680
  4448                        14.680
  4449                        14.680
  4450                        14.680
  4451                        14.680
  4452                        14.680
  4453                        14.680
  4454                        14.680
  4462                        14.680
  4463                        14.680
  4563                        14.680
  4564                        14.680
  4565                        14.680
  4566                        14.680
  4567                        14.680
  4568                        14.680
  4569                        14.680
  4570                        14.680
  4571                        14.680
  4572                        14.680
  4573                        14.680
  4574                        14.680
  4575                        14.680
  4576                        14.680
  4577                        14.680
  4578                        14.680
  4579                        14.680
  4580                        14.680
  4581                        14.680
  4624                        14.680
  4625                        14.680
  4644                        14.680
  4645                        14.680
  4646                        14.680
  4679                        14.680
  4680                        14.680
  4681                        14.680
  4682                        14.680
  4683                        14.680
  4711                        14.680
  4712                        14.680
  4713                        14.680
  4714                        14.680
  4715                        14.680
  4716                        14.680
  4717                        14.680
  4718                        14.680
  4722                        14.680
  4760                        14.680
  4761                        14.680
  4765                        14.680
  4766                        14.680
  4767                        14.680
  4768                        14.680
  4769                        14.680
  4855                        14.680
  4856                        14.680
  5284                        14.680
  5285                        14.680
  5286                        14.680
  5287                        14.680
  5288                        14.680
  5289                        14.680
  5290                        14.680
  5291                        14.680
  5292                        14.680
  5293                        14.680
  5294                        14.680
  5295                        14.680
  5296                        14.680
  5297                        14.680
  5298                        14.680
  5299                        14.680
  5300                        14.680
  5301                        14.680
  5302                        14.680
  5303                        14.680
  5304                        14.680
  5305                        14.680
  5306                        14.680
  5307                        14.680
  5308                        14.680
  5309                        14.680
  5310                        14.680
  5311                        14.680
  5312                        14.680
  5313                        14.680
  5314                        14.680
  5315                        14.680
  5316                        14.680
  5317                        14.680
  5318                        14.680
  5319                        14.680
  5320                        14.680
  5321                        14.680
  5322                        14.680
  5323                        14.680
  5324                        14.680
  5325                        14.680
  5326                        14.680
  5327                        14.680
  5328                        14.680
  5329                        14.680
  5330                        14.680
  5333                        14.680
  5334                        14.680
  6040                        14.680
  6041                        14.680
  6162                        14.680
  7207                        14.680
  7208                        14.680
  7213                        14.680
  7214                        14.680
  7219                        14.680
  7220                        14.680
  7221                        14.680
  7225                        14.680
  7229                        14.680
  7231                        14.680
  7268                        14.680
  7269                        14.680
  7271                        14.680
  7272                        14.680
  7273                        14.680
  7433                        14.680
  7434                        14.680
  7544                        14.680
  7545                        14.680
  8737                        14.680
  8818                        14.680
  9942                        14.680
  9957                        14.680
  4399                         4.408
  4400                         4.408
  4401                         4.408
  4402                         4.408
  4403                         4.408
  4404                         4.408
  4405                         4.408
  4406                         4.408
  4407                         4.408
  4408                         4.408
  4409                         4.408
  4410                         4.408
  4411                         4.408
  4412                         4.408
  4423                         4.408
  4424                         4.408
  4425                         4.408
  4426                         4.408
  4427                         4.408
  4428                         4.408
  4455                         4.408
  4456                         4.408
  4457                         4.408
  4458                         4.408
  4459                         4.408
  4460                         4.408
  4461                         4.408
  4464                         4.408
  4465                         4.408
  4466                         4.408
  4467                         4.408
  4468                         4.408
  4469                         4.408
  4470                         4.408
  4471                         4.408
  4472                         4.408
  4473                         4.408
  4474                         4.408
  4628                         4.408
  4631                         4.408
  4632                         4.408
  4633                         4.408
  4634                         4.408
  4637                         4.408
  4686                         4.408
  4687                         4.408
  4688                         4.408
  5032                         4.408
  5331                         4.408
  5332                         4.408
  5335                         4.408
  5336                         4.408
  5337                         4.408
  5338                         4.408
  5339                         4.408
  5340                         4.408
  5341                         4.408
  5342                         4.408
  5343                         4.408
  5344                         4.408
  5345                         4.408
  5346                         4.408
  5347                         4.408
  5348                         4.408
  5349                         4.408
  5350                         4.408
  6088                         4.408
  7275                         4.408
  9955                         4.408
  9956                         4.408
  ----------------------------------
  System                    4198.608
  
  
  ******************
  Node Depth Summary
  ******************
  
  ---------------------------------------------------------------------------------
                                 Average  Maximum  Maximum  Time of Max    Reported
                                   Depth    Depth      HGL   Occurrence   Max Depth
  Node                 Type       Meters   Meters   Meters  days hr:min      Meters
  ---------------------------------------------------------------------------------
  Node_02706           JUNCTION     3.01     4.86   101.70     0  02:37        0.00
  Node_02707           JUNCTION     1.06     2.75   102.19     0  02:26        0.00
  Node_02708           JUNCTION     0.93     2.82   102.57     0  02:26        0.00
  Node_02709           JUNCTION     1.03     3.05   102.68     0  02:26        0.00
  Node_02711           JUNCTION     0.72     2.76   102.67     0  02:26        0.00
  Node_02712           JUNCTION     0.72     2.73   102.63     0  02:26        0.00
  Node_02713           JUNCTION     0.77     2.71   102.56     0  02:26        0.00
  Node_02714           JUNCTION     0.41     2.17   102.57     0  02:26        0.00
  Node_02715           JUNCTION     0.78     2.56   102.37     0  02:26        0.00
  Node_02716           JUNCTION     0.83     2.49   102.21     0  02:26        0.00
  Node_02717           JUNCTION     0.89     2.54   102.18     0  02:26        0.00
  Node_02718           JUNCTION     0.90     2.60   102.20     0  02:26        0.00
  Node_02720           JUNCTION     0.93     2.64   102.21     0  02:26        0.00
  Node_02721           JUNCTION     1.22     2.99   102.24     0  02:26        0.00
  Node_02722           JUNCTION     0.14     0.40   102.20     0  02:27        0.00
  Node_02723           JUNCTION     1.16     2.86   102.16     0  02:26        0.00
  Node_02724           JUNCTION     1.02     2.65   102.07     0  02:26        0.00
  Node_02725           JUNCTION     1.04     2.59   101.96     0  02:26        0.00
  Node_02726           JUNCTION     1.12     2.58   101.84     0  02:27        0.00
  Node_02727           JUNCTION     1.22     2.60   101.73     0  02:27        0.00
  Node_02728           JUNCTION     0.57     1.65   101.73     0  02:27        0.00
  Node_02729           JUNCTION     1.26     2.55   101.61     0  02:27        0.00
  Node_02730           JUNCTION     1.27     2.45   101.48     0  02:27        0.00
  Node_02731           JUNCTION     1.68     2.71   101.30     0  02:27        0.00
  Node_02732           JUNCTION     1.24     2.19   101.21     0  02:23        0.00
  Node_02733           JUNCTION     1.25     2.29   101.29     0  02:51        0.00
  Node_02734           JUNCTION     1.54     2.63   101.34     0  02:39        0.00
  Node_02735           JUNCTION     1.44     2.54   101.35     0  02:51        0.00
  Node_02736           JUNCTION     1.63     2.79   101.40     0  02:50        0.00
  Node_02737           JUNCTION     1.62     2.82   101.44     0  02:38        0.00
  Node_02738           JUNCTION     1.46     2.73   101.50     0  02:41        0.00
  Node_02739           JUNCTION     1.34     2.69   101.56     0  02:58        0.00
  Node_02740           JUNCTION     1.35     2.76   101.60     0  02:39        0.00
  Node_02741           JUNCTION     1.02     2.30   101.60     0  02:51        0.00
  Node_02742           JUNCTION     1.37     2.82   101.63     0  02:45        0.00
  Node_02743           JUNCTION     1.79     3.29   101.66     0  02:38        0.00
  Node_02744           JUNCTION     0.97     2.31   101.66     0  02:38        0.00
  Node_02745           JUNCTION     1.52     3.05   101.67     0  02:51        0.00
  Node_02746           JUNCTION     1.42     3.00   101.69     0  02:49        0.00
  Node_02747           JUNCTION     0.40     1.33   101.69     0  02:46        0.00
  Node_02748           JUNCTION     0.35     1.23   101.69     0  02:46        0.00
  Node_02749           JUNCTION     1.44     3.06   101.70     0  02:59        0.00
  Node_02750           JUNCTION     1.45     3.10   101.70     0  02:41        0.00
  Node_02751           JUNCTION     1.43     3.11   101.71     0  02:39        0.00
  Node_02752           JUNCTION     1.44     3.16   101.71     0  02:42        0.00
  Node_02753           JUNCTION     1.47     3.23   101.71     0  02:38        0.00
  Node_02754           JUNCTION     1.53     3.39   101.71     0  02:38        0.00
  Node_02755           JUNCTION     2.46     4.31   101.71     0  02:37        0.00
  Node_02963           JUNCTION     0.71     2.28   102.19     0  02:27        0.00
  Node_02968           JUNCTION     0.52     1.44   101.56     0  02:39        0.00
  Node_02969           JUNCTION     0.65     1.77   101.66     0  02:59        0.00
  Node_02973           JUNCTION     1.98     3.82   101.71     0  02:36        0.00
  Node_02974           JUNCTION     2.28     4.49   101.62     0  02:39        0.00
  Node_02975           JUNCTION     2.28     4.49   101.62     0  02:39        0.00
  Node_02976           JUNCTION     2.30     4.47   101.66     0  02:39        0.00
  Node_02977           JUNCTION     2.28     4.39   101.72     0  02:37        0.00
  Node_02978           JUNCTION     2.16     4.25   101.78     0  02:38        0.00
  Node_02979           JUNCTION     2.23     4.47   101.58     0  02:39        0.00
  Node_02980           JUNCTION     2.18     4.46   101.55     0  03:05        0.00
  Node_02981           JUNCTION     2.21     4.56   101.51     0  03:03        0.00
  Node_02983           JUNCTION     0.51     1.38   101.50     0  02:43        0.00
  Node_02984           JUNCTION     2.61     4.73   101.71     0  02:39        0.00
  Node_03924           JUNCTION     0.31     1.00   101.82     0  02:21        0.00
  Node_03925           JUNCTION     0.71     2.06   102.43     0  02:54        0.00
  Node_03926           JUNCTION     0.20     0.96   102.43     0  02:46        0.00
  Node_03927           JUNCTION     0.69     2.05   102.43     0  02:40        0.00
  Node_03928           JUNCTION     0.71     2.08   102.42     0  02:41        0.00
  Node_03929           JUNCTION     0.72     2.10   102.40     0  02:37        0.00
  Node_03930           JUNCTION     0.75     2.13   102.39     0  02:38        0.00
  Node_03931           JUNCTION     0.74     2.12   102.37     0  03:08        0.00
  Node_03932           JUNCTION     0.78     2.16   102.32     0  02:45        0.00
  Node_03933           JUNCTION     0.78     2.13   102.25     0  03:14        0.00
  Node_03934           JUNCTION     0.38     1.40   102.26     0  02:37        0.00
  Node_03935           JUNCTION     0.84     2.18   102.15     0  02:41        0.00
  Node_03936           JUNCTION     0.85     2.12   102.05     0  02:35        0.00
  Node_03937           JUNCTION     1.35     1.77   101.93     0  02:36        0.00
  Node_03938           JUNCTION     1.56     3.25   102.44     0  02:32        0.00
  Node_03939           JUNCTION     1.68     3.39   102.43     0  02:36        0.00
  Node_03940           JUNCTION     1.75     3.47   102.40     0  03:00        0.00
  Node_03941           JUNCTION     1.83     3.53   102.34     0  02:19        0.00
  Node_03942           JUNCTION     1.86     3.54   102.29     0  02:39        0.00
  Node_03943           JUNCTION     1.94     3.58   102.19     0  01:55        0.00
  Node_03944           JUNCTION     2.04     3.69   102.17     0  01:55        0.00
  Node_03945           JUNCTION     2.10     3.78   102.20     0  02:17        0.00
  Node_03946           JUNCTION     2.17     3.89   102.24     0  02:30        0.00
  Node_03947           JUNCTION     2.50     4.43   102.32     0  02:44        0.00
  Node_03948           JUNCTION     2.49     4.49   102.34     0  02:49        0.00
  Node_03949           JUNCTION     2.61     4.65   102.35     0  02:45        0.00
  Node_03950           JUNCTION     2.49     4.58   102.35     0  02:38        0.00
  Node_03951           JUNCTION     2.50     4.65   102.34     0  02:41        0.00
  Node_03952           JUNCTION     2.53     4.75   102.34     0  02:54        0.00
  Node_03953           JUNCTION     2.46     4.74   102.32     0  02:39        0.00
  Node_03954           JUNCTION     3.35     5.67   102.25     0  03:10        0.00
  Node_03955           JUNCTION     2.32     4.66   102.15     0  02:52        0.00
  Node_04031           JUNCTION     0.42     1.03   102.26     0  02:24        0.00
  Node_04032           JUNCTION     2.13     3.93   102.28     0  02:39        0.00
  Node_04040           JUNCTION     0.74     1.74   102.28     0  02:29        0.00
  Node_04050           JUNCTION     0.46     1.49   102.46     0  04:10        0.00
  Node_04054           JUNCTION     0.31     1.28   102.42     0  02:37        0.00
  Node_04055           JUNCTION     0.47     1.51   102.32     0  02:52        0.00
  Node_04057           JUNCTION     0.53     1.60   101.91     0  02:21        0.00
  Node_04384           JUNCTION     2.30     4.30   101.88     0  02:38        0.00
  Node_04385           JUNCTION     2.01     3.98   101.90     0  02:44        0.00
  Node_04386           JUNCTION     2.00     3.96   101.91     0  02:25        0.00
  Node_04387           JUNCTION     1.99     3.96   101.93     0  02:25        0.00
  Node_04388           JUNCTION     1.98     3.94   101.95     0  02:25        0.00
  Node_04389           JUNCTION     0.54     1.59   101.95     0  02:25        0.00
  Node_04390           JUNCTION     1.97     3.93   101.95     0  02:25        0.00
  Node_04391           JUNCTION     1.95     3.89   101.96     0  02:25        0.00
  Node_04392           JUNCTION     2.06     3.99   101.95     0  02:25        0.00
  Node_04393           JUNCTION     1.93     3.84   101.95     0  02:25        0.00
  Node_04394           JUNCTION     0.84     2.30   101.95     0  02:25        0.00
  Node_04395           JUNCTION     1.92     3.77   101.93     0  02:25        0.00
  Node_04396           JUNCTION     1.89     3.71   101.91     0  02:44        0.00
  Node_04397           JUNCTION     0.69     2.00   101.90     0  02:25        0.00
  Node_04428           JUNCTION     1.89     3.69   101.91     0  02:58        0.00
  Node_04429           JUNCTION     1.88     3.65   101.90     0  02:39        0.00
  Node_04430           JUNCTION     1.86     3.62   101.90     0  02:51        0.00
  Node_04431           JUNCTION     1.63     3.32   101.89     0  02:54        0.00
  Node_04432           JUNCTION     1.54     3.21   101.89     0  02:56        0.00
  Node_04433           JUNCTION     1.36     3.00   101.88     0  02:45        0.00
  Node_04434           JUNCTION     1.65     3.29   101.88     0  02:45        0.00
  Node_04435           JUNCTION     1.49     3.08   101.86     0  02:49        0.00
  Node_04436           JUNCTION     1.88     3.45   101.84     0  03:05        0.00
  Node_04437           JUNCTION     2.01     3.53   101.82     0  02:50        0.00
  Node_04438           JUNCTION     2.30     3.82   101.83     0  02:45        0.00
  Node_04439           JUNCTION     1.36     2.86   101.84     0  02:54        0.00
  Node_04440           JUNCTION     1.34     2.83   101.84     0  02:57        0.00
  Node_04441           JUNCTION     1.07     2.51   101.84     0  02:57        0.00
  Node_04442           JUNCTION     1.41     2.87   101.84     0  02:42        0.00
  Node_04443           JUNCTION     1.26     2.71   101.85     0  02:50        0.00
  Node_04444           JUNCTION     1.25     2.67   101.84     0  03:13        0.00
  Node_04445           JUNCTION     1.17     2.59   101.86     0  02:44        0.00
  Node_04446           JUNCTION     1.14     2.53   101.87     0  03:14        0.00
  Node_04447           JUNCTION     1.07     2.43   101.87     0  03:08        0.00
  Node_04448           JUNCTION     1.08     2.43   101.88     0  03:12        0.00
  Node_04449           JUNCTION     1.09     2.44   101.90     0  02:47        0.00
  Node_04450           JUNCTION     1.24     2.60   101.92     0  02:19        0.00
  Node_04451           JUNCTION     1.05     2.39   101.93     0  02:19        0.00
  Node_04452           JUNCTION     0.80     2.13   101.95     0  02:19        0.00
  Node_04453           JUNCTION     0.59     1.74   101.96     0  02:19        0.00
  Node_04461           JUNCTION     1.01     2.29   101.91     0  02:19        0.00
  Node_04462           JUNCTION     1.00     2.29   101.94     0  02:19        0.00
  Node_04562           JUNCTION     0.96     2.46   102.05     0  02:19        0.00
  Node_04563           JUNCTION     1.31     2.92   102.04     0  02:19        0.00
  Node_04564           JUNCTION     1.11     2.69   102.08     0  02:19        0.00
  Node_04565           JUNCTION     1.13     2.74   102.10     0  02:19        0.00
  Node_04566           JUNCTION     1.27     2.89   102.09     0  02:19        0.00
  Node_04567           JUNCTION     1.23     2.84   102.06     0  02:19        0.00
  Node_04568           JUNCTION     1.24     2.84   102.03     0  02:19        0.00
  Node_04569           JUNCTION     1.40     3.04   102.01     0  02:19        0.00
  Node_04570           JUNCTION     0.88     2.29   102.02     0  02:19        0.00
  Node_04571           JUNCTION     1.41     2.99   101.92     0  02:19        0.00
  Node_04572           JUNCTION     2.80     4.44   101.97     0  02:19        0.00
  Node_04573           JUNCTION     2.48     4.17   102.01     0  02:20        0.00
  Node_04574           JUNCTION     2.63     3.77   102.07     0  02:20        0.00
  Node_04575           JUNCTION     2.97     4.75   102.06     0  02:20        0.00
  Node_04576           JUNCTION     1.60     3.38   102.03     0  02:20        0.00
  Node_04577           JUNCTION     1.64     3.40   101.98     0  02:20        0.00
  Node_04578           JUNCTION     1.68     3.45   101.96     0  02:41        0.00
  Node_04579           JUNCTION     1.75     3.53   101.94     0  03:04        0.00
  Node_04580           JUNCTION     0.78     1.98   101.76     0  02:19        0.00
  Node_04623           JUNCTION     0.78     2.24   101.90     0  02:49        0.00
  Node_04624           JUNCTION     0.96     2.38   101.84     0  02:25        0.00
  Node_04643           JUNCTION     0.74     2.00   101.90     0  02:19        0.00
  Node_04644           JUNCTION     0.75     2.01   101.85     0  02:49        0.00
  Node_04645           JUNCTION     0.93     2.05   101.65     0  02:19        0.00
  Node_04678           JUNCTION     0.79     2.18   101.91     0  02:57        0.00
  Node_04679           JUNCTION     0.53     1.71   101.90     0  02:49        0.00
  Node_04680           JUNCTION     2.08     4.09   101.86     0  02:57        0.00
  Node_04681           JUNCTION     2.08     4.12   101.84     0  02:52        0.00
  Node_04682           JUNCTION     0.31     1.01   102.02     0  02:20        0.00
  Node_04710           JUNCTION     0.70     1.90   101.89     0  02:23        0.00
  Node_04711           JUNCTION     0.74     2.61   102.60     0  05:30        0.00
  Node_04712           JUNCTION     0.75     2.61   102.62     0  04:33        0.00
  Node_04713           JUNCTION     0.71     2.58   102.63     0  02:23        0.00
  Node_04714           JUNCTION     0.74     2.60   102.65     0  04:36        0.00
  Node_04715           JUNCTION     0.71     2.52   102.61     0  02:23        0.00
  Node_04716           JUNCTION     0.71     2.46   102.59     0  04:40        0.00
  Node_04717           JUNCTION     0.44     1.27   101.57     0  02:23        0.00
  Node_04721           JUNCTION     0.60     1.63   101.98     0  02:20        0.00
  Node_04759           JUNCTION     0.66     1.86   102.04     0  02:20        0.00
  Node_04760           JUNCTION     0.76     2.11   101.57     0  02:34        0.00
  Node_04764           JUNCTION     0.69     1.59   101.51     0  02:19        0.00
  Node_04765           JUNCTION     0.54     1.50   101.92     0  02:19        0.00
  Node_04766           JUNCTION     0.90     2.26   102.03     0  02:19        0.00
  Node_04767           JUNCTION     0.88     2.28   102.11     0  02:19        0.00
  Node_04768           JUNCTION     0.95     2.35   102.01     0  02:19        0.00
  Node_04854           JUNCTION     0.45     1.53   101.96     0  02:25        0.00
  Node_04855           JUNCTION     1.03     2.14   102.07     0  02:20        0.00
  Node_05283           JUNCTION     1.98     3.63   102.25     0  02:47        0.00
  Node_05284           JUNCTION     1.95     3.58   102.24     0  02:50        0.00
  Node_05285           JUNCTION     1.89     3.47   102.22     0  01:55        0.00
  Node_05286           JUNCTION     1.86     3.42   102.22     0  01:55        0.00
  Node_05287           JUNCTION     1.83     3.42   102.27     0  02:18        0.00
  Node_05288           JUNCTION     1.82     3.41   102.28     0  01:56        0.00
  Node_05289           JUNCTION     1.30     2.70   102.22     0  01:55        0.00
  Node_05290           JUNCTION     1.81     3.40   102.29     0  01:56        0.00
  Node_05291           JUNCTION     1.61     3.19   102.39     0  01:56        0.00
  Node_05292           JUNCTION     1.58     3.17   102.41     0  03:10        0.00
  Node_05293           JUNCTION     1.57     3.15   102.41     0  01:56        0.00
  Node_05294           JUNCTION     1.53     3.11   102.43     0  02:29        0.00
  Node_05295           JUNCTION     1.57     3.15   102.42     0  02:23        0.00
  Node_05296           JUNCTION     1.54     3.12   102.43     0  02:57        0.00
  Node_05297           JUNCTION     1.34     2.79   102.30     0  01:56        0.00
  Node_05298           JUNCTION     1.49     3.04   102.44     0  02:29        0.00
  Node_05299           JUNCTION     1.48     3.03   102.44     0  01:56        0.00
  Node_05300           JUNCTION     1.45     2.98   102.43     0  02:27        0.00
  Node_05301           JUNCTION     1.42     2.93   102.42     0  02:18        0.00
  Node_05302           JUNCTION     1.42     2.93   102.43     0  03:12        0.00
  Node_05303           JUNCTION     1.38     2.88   102.43     0  02:19        0.00
[...]
  Link_02387                  3.37      3.37      3.92      0.01         0.01
  Link_02388                  3.96      3.96      3.98      0.01         0.01
  Link_02389                  2.78      2.78      3.32      0.01         0.01
  Link_02390                  3.99      3.99      4.01      0.01         0.03
  Link_02391                  4.01      4.01      4.10      0.01         0.01
  Link_02392                  2.77      2.77      3.00      0.01         0.01
  Link_02393                  4.10      4.10      4.11      1.00         1.01
  Link_05459                  3.59      3.59      3.61      0.03         0.01
  Link_05460                  3.63      3.63      3.64      0.01         0.02
  Link_05461                  3.68      3.68      3.68      0.85         0.87
  Link_05462                  3.72      3.72      3.72      1.84         1.00
  Link_05463                  3.74      3.74      3.75      1.42         1.21
  Link_05464                  3.78      3.78      3.78      0.01         0.97
  Link_05496                  4.19      4.22      4.19      2.79         2.69
  Link_05662                  2.07      2.07      2.10      0.01         0.01
  Link_05663                  2.56      2.56      2.86      0.01         0.01
  Link_05664                  4.41      4.41      4.42      0.01         0.01
  Link_05665                  4.42      4.50      4.42      4.92         4.37
  Link_05677                  4.42      4.42      4.42      3.68         2.58
  Link_05678                  2.51      2.51      2.52      0.01         0.01
  Link_05720                  4.13      4.13      4.13      0.75         0.61
  Link_05721                  4.17      4.18      4.17      0.66         0.54
  Link_05722                  2.67      2.67      2.78      0.01         0.01
  Link_05726                  4.09      4.09      4.12      0.01         0.01
  Link_05727                  4.09      4.09      4.10      0.01         0.06
  Link_05728                  3.95      3.95      3.97      0.01         0.01
  Link_05729                  3.01      3.01      3.02      1.67         1.41
  Link_05730                  1.65      1.65      1.71      0.01         0.01
  Link_05731                  2.48      2.48      2.49      1.13         1.40
  Link_05732                  1.18      1.18      1.39      0.01         0.01
  Link_05742                  2.55      2.55      2.67      0.01         0.01
  Link_05743                  4.11      4.11      4.13      0.01         0.01
  Link_05744                  4.29      4.29      4.36      0.02         0.03
  Link_05752                  2.34      2.34      2.35      1.75         0.01
  Link_05791                  0.01      0.01      0.48      0.01         0.01
  Link_05812                  4.04      4.04      4.32      0.01         0.01
  Link_05813                  3.53      3.53      3.59      0.01         0.01
  Link_05814                  3.17      3.17      3.24      0.01         0.01
  Link_05815                  3.03      3.03      3.08      0.01         0.01
  Link_05983                  2.17      2.17      2.23      0.01         0.01
  Link_05984                  2.01      2.01      2.04      0.01         0.01
  Link_07220                  2.23      2.23      2.29      0.01         0.02
  Link_07221                  2.29      2.29      2.29      1.07         1.01
  Link_07222                  2.29      2.29      2.34      0.22         0.23
  Link_07230                  2.34      2.34      2.45      0.10         0.12
  Link_07231                  2.45      2.45      2.45      0.66         0.58
  Link_07233                  2.60      2.75      2.60      2.98         2.56
  Link_07234                  2.65      2.68      2.65      3.31         2.65
  Link_07235                  2.78      2.78      2.80      0.69         0.61
  Link_07270                  1.62      1.62      1.84      0.01         0.01
  Link_07271                  1.84      1.84      1.97      0.01         0.02
  Link_07274                  1.70      1.70      1.71      0.01         0.11
  Link_07277                  2.02      2.03      2.14      0.02         0.03
  Link_07278                  2.16      2.17      2.18      0.02         0.04
  Link_07295                  2.17      2.18      2.21      0.03         0.03
  Link_07296                  2.21      2.21      2.23      0.11         0.08
  Link_07297                  2.23      2.23      2.23      1.07         1.03
  Link_07303                  2.19      2.19      2.20      0.01         0.03
  Link_07306                  1.89      1.89      2.15      0.01         0.01
  Link_07464                  3.38      3.38      3.41      0.01         0.01
  Link_07578                  2.40      2.40      2.43      0.01         0.01
  Link_07579                  2.83      2.83      2.94      0.01         0.01
  Link_07580                  2.72      2.72      2.83      0.01         0.01
  Link_07687                  3.73      3.73      3.83      0.01         0.01
  Link_08891                  2.11      2.11      2.46      0.01         0.01
  Link_08912                  2.13      2.13      2.68      0.01         0.01
  Link1_to_ChengXi            3.83      3.83      3.85      0.01         0.01
  Link2_to_ChengXi            3.81      4.72      3.81      4.85         3.81
  Link3_to_ChengXi            2.16      2.70      2.16      2.27         1.64
  Link_to_LaoDongLu           1.71      1.71      1.73      0.01         0.01
  
  
  ***************
  Pumping Summary
  ***************
  
  ---------------------------------------------------------------------------------------------------------
                                                  Min       Avg       Max     Total     Power    % Time Off
                        Percent   Number of      Flow      Flow      Flow    Volume     Usage    Pump Curve
  Pump                 Utilized   Start-Ups       CMS       CMS       CMS  10^6 ltr     Kw-hr    Low   High
  ---------------------------------------------------------------------------------------------------------
  Pump_ChengXi1           87.31         302      0.00      0.17      0.17     3.149     24.31    0.0    0.0
  Pump_ChengXi2           84.58         301      0.00      0.17      0.17     3.051     22.27    0.0    0.0
  Pump_ChengXi3           25.35         143      0.00      0.17      0.17     0.914      6.35    0.0    0.0
  Pump_ChengXi4            1.02          44      0.00      0.17      0.17     0.037      0.76    0.0    0.0
  Pump_LaoDongLu1         97.22           2      0.00      0.03      0.03     0.568      6.45    0.0    0.0
  Pump_LaoDongLu2         91.67           6      0.00      0.03      0.03     0.535      5.88    0.0    0.0
  Pump_LaoDongLu3          4.17           3      0.00      0.03      0.03     0.025      0.43    0.0    0.0
  outfallpump             99.68          14      0.00      0.32      0.45     6.840    122.00    0.0    0.0
  
  
  ***************************
  Link Pollutant Load Summary
  ***************************
  
  ----------------------------------
                                 COD
  Link                            kg
  ----------------------------------
  Link_01146                  42.711
  Link_01147                  56.913
  Link_01148                  71.084
  Link_01149                  81.668
  Link_01150                  95.613
  Link_01151                  68.803
  Link_01152                  67.511
  Link_01274                  16.702
  Link_01275                  31.705
  Link_01276                  67.743
  Link_01292                  23.536
  Link_01294                  96.617
  Link_01295                 111.281
  Link_01296                 126.049
  Link_01297                 161.016
  Link_01298                  16.549
  Link_01299                 192.296
  Link_01300                 207.002
  Link_01301                 221.713
  Link_01302                  16.400
  Link_01312                  20.161
  Link_01313                 255.300
  Link_01314                 253.903
  Link_01315                 253.529
  Link_01316                 254.498
  Link_01317                 261.436
  Link_01318                 276.378
  Link_01319                 291.441
  Link_01320                 346.345
  Link_01323                 246.291
  Link_01324                  18.479
  Link_01325                 278.181
  Link_01326                 292.254
  Link_01327                 182.573
  Link_01328                  25.941
  Link_01329                 212.100
  Link_01330                 208.015
  Link_01331                 204.827
  Link_01332                 193.266
  Link_01333                  18.545
  Link_01334                 225.915
  Link_01335                  19.973
  Link_01336                 260.006
  Link_01337                 150.241
  Link_01338                  18.544
  Link_01339                 125.952
  Link_01340                  13.266
  Link_01341                 126.023
  Link_01342                  18.503
  Link_01343                 149.145
  Link_01344                  27.354
  Link_01345                 181.880
  Link_01346                 194.178
  Link_01347                  45.736
  Link_01348                 180.414
  Link_01349                  27.442
  Link_01350                 192.383
  Link_01351                  17.965
  Link_01352                 214.197
  Link_01556                  18.516
  Link_01557                  34.468
  Link_01558                1467.217
  Link_01559                  46.715
  Link_01560                1453.098
  Link_01561                1497.166
  Link_01562                1513.545
  Link_01563                1528.565
  Link_01564                  15.287
  Link_01565                 132.864
  Link_01566                   9.088
  Link_01567                  18.623
  Link_01568                 157.221
  Link_01569                  37.289
  Link_01570                 181.021
  Link_01571                 137.426
  Link_01572                 212.252
  Link_01573                 152.809
  Link_01574                 136.552
  Link_01575                  19.561
  Link_01576                 101.464
  Link_01577                  66.374
  Link_01578                  50.516
  Link_01579                  18.770
  Link_01580                   7.966
  Link_01581                  12.416
  Link_01582                   7.958
  Link_01731                  28.281
  Link_01732                  46.844
  Link_01733                  63.751
  Link_01734                  18.581
  Link_01735                  22.680
  Link_01751                 133.885
  Link_01752                 147.369
  Link_01753                 177.531
  Link_01754                 191.429
  Link_01755                 206.313
  Link_01756                  17.040
  Link_01757                 248.011
  Link_01758                  17.850
  Link_01759                  17.855
  Link_01760                 285.458
  Link_01761                 296.861
  Link_01762                 308.432
  Link_01763                  18.444
  Link_01764                 333.629
  Link_01765                 349.519
  Link_01766                 353.973
  Link_01767                 539.737
  Link_01768                 531.314
  Link_01769                 524.584
  Link_01770                 517.859
  Link_01771                 510.525
  Link_01772                  38.544
  Link_01773                 506.261
  Link_01774                  40.223
  Link_01775                 202.289
  Link_01776                 182.886
  Link_01777                 168.620
  Link_01778                 234.407
  Link_01779                 125.492
  Link_01780                 231.906
  Link_01781                  71.589
  Link_01782                 492.265
  Link_01783                  18.089
  Link_01784                 480.426
  Link_01785                 475.764
  Link_01786                  68.250
  Link_01787                  39.574
  Link_01788                 495.387
  Link_01789                 490.723
  Link_01790                  23.804
  Link_01791                  23.499
  Link_01792                  23.634
  Link_01793                 481.315
  Link_01794                 476.917
  Link_01795                 472.636
  Link_01796                 469.158
  Link_01797                 464.778
  Link_01798                1003.323
  Link_01799                 990.627
  Link_01800                1016.595
  Link_01801                 444.324
  Link_01802                 923.012
  Link_01803                 977.236
  Link_01804                 787.183
  Link_01805                 772.867
  Link_01806                 758.826
  Link_01807                 743.871
  Link_01808                  21.858
  Link_01809                 710.313
  Link_01810                 682.226
  Link_01811                  14.655
  Link_01812                  59.655
  Link_01813                  50.382
  Link_01814                 658.108
  Link_01815                 657.624
  Link_01816                 656.579
  Link_01817                  16.398
  Link_01818                 646.840
  Link_01819                 600.570
  Link_01820                  51.010
  Link_01821                  32.383
  Link_01822                   7.942
  Link_01823                 286.186
  Link_01824                 281.030
  Link_01825                  72.831
  Link_01826                  77.354
  Link_01827                   4.405
  Link_01828                  86.245
  Link_01829                   7.890
  Link_01830                  98.766
  Link_01831                   4.405
  Link_01832                 107.745
  Link_01833                 112.324
  Link_01834                 120.984
  Link_01835                   4.405
  Link_01836                  59.879
  Link_01837                  22.275
  Link_01838                  43.421
  Link_01839                  55.227
  Link_01840                  50.758
  Link_01841                  46.313
  Link_01842                  35.690
  Link_01843                  26.724
  Link_01844                  22.268
  Link_02074                  18.187
  Link_02075                 151.568
  Link_02076                 149.610
  Link_02077                  33.326
  Link_02078                 166.654
  Link_02079                  20.161
  Link_02080                 199.219
  Link_02081                 212.843
  Link_02082                 226.512
  Link_02083                  20.109
  Link_02084                  18.494
  Link_02085                 518.947
  Link_02086                 533.218
  Link_02087                 542.061
  Link_02088                 551.053
  Link_02089                 559.133
  Link_02090                 561.668
  Link_02091                 548.234
  Link_02092                 535.272
  Link_02093                  17.799
  Link_02094                 491.857
  Link_02095                 479.003
  Link_02096                 529.399
  Link_02097                  25.210
  Link_02098                 114.004
  Link_02099                 516.025
  Link_02100                 502.466
  Link_02101                  70.811
  Link_02102                 520.616
  Link_02103                 482.628
  Link_02104                  37.106
  Link_02105                 384.111
  Link_02106                  22.074
  Link_02107                  14.837
  Link_02108                 386.165
  Link_02109                 371.730
  Link_02110                 417.583
  Link_02111                 272.204
  Link_02112                  23.499
  Link_02113                 197.370
  Link_02114                  62.334
  Link_02115                  57.784
  Link_02116                  53.309
  Link_02117                  48.881
  Link_02118                  44.428
  Link_02123                   7.952
  Link_02124                  12.387
  Link_02125                  16.828
  Link_02126                  21.252
  Link_02127                  39.988
  Link_02128                  35.532
  Link_02129                  31.116
  Link_02130                  26.687
  Link_02131                  22.224
  Link_02132                  17.755
  Link_02133                  13.286
  Link_02134                 201.939
  Link_02135                 206.557
  Link_02136                 219.063
  Link_02137                   7.943
  Link_02138                 254.251
  Link_02139                 249.660
  Link_02140                 245.110
  Link_02141                 240.508
  Link_02142                 236.057
  Link_02143                 223.610
  Link_02383                  14.832
  Link_02384                  14.907
  Link_02385                  24.014
  Link_02386                  32.465
  Link_02387                  70.073
  Link_02388                  83.326
  Link_02389                  25.095
  Link_02390                  96.716
  Link_02391                 134.782
  Link_02392                  47.747
  Link_02393                 195.330
  Link_05459                 120.016
  Link_05460                 274.657
  Link_05461                 342.308
  Link_05462                 503.342
  Link_05463                 486.134
  Link_05464                  52.566
  Link_05496                1435.403
  Link_05662                  81.915
  Link_05663                  17.564
  Link_05664                  67.732
  Link_05665                 361.384
  Link_05677                 238.755
  Link_05678                  23.565
  Link_05720                 908.658
  Link_05721                 667.500
  Link_05722                  23.503
  Link_05723                 130.451
  Link_05725                  25.696
  Link_05726                 509.890
  Link_05727                  16.347
  Link_05728                 504.723
  Link_05729                 535.203
  Link_05730                 412.079
  Link_05731                 277.075
  Link_05732                 267.571
  Link_05742                  32.313
  Link_05743                 155.393
  Link_05744                 240.517
  Link_05752                 377.108
  Link_05753                   6.187
  Link_05754                  31.200
  Link_05791                   7.907
  Link_05812                 262.287
  Link_05813                 169.620
  Link_05814                 130.532
  Link_05815                 169.130
  Link_05816                  29.256
  Link_05817                  41.734
  Link_05818                  13.250
  Link_05983                  42.415
  Link_05984                  27.289
  Link_06039                   4.400
  Link_07220                 179.957
  Link_07221                 195.758
  Link_07222                 121.863
  Link_07230                 136.297
  Link_07231                 150.817
  Link_07233                 341.400
  Link_07234                 356.312
  Link_07235                 176.000
  Link_07270                  37.788
  Link_07271                  58.988
  Link_07274                  25.748
  Link_07277                  81.906
  Link_07278                 100.990
  Link_07295                 109.685
  Link_07296                 126.274
  Link_07297                 164.953
  Link_07303                  18.654
  Link_07306                 121.176
  Link_07321                  13.282
  Link_07464                  29.093
  Link_07578                  29.011
  Link_07579                 467.647
  Link_07580                 436.956
  Link_07687                  27.333
  Link_07865                  13.252
  Link_08891                  20.038
  Link_08912                  41.354
  Link1_to_ChengXi          1544.611
  Link2_to_ChengXi           377.531
  Link3_to_ChengXi           369.732
  Link_to_LaoDongLu          422.272
  Pump_ChengXi1             1009.432
  Pump_ChengXi2              954.953
  Pump_ChengXi3              283.931
  Pump_ChengXi4               20.314
  Pump_LaoDongLu1            180.864
  Pump_LaoDongLu2            162.418
  Pump_LaoDongLu3             13.835
  outfallpump               2112.670
  

  Analysis begun on:  Sat Sep  4 22:59:57 2021
  Analysis ended on:  Sat Sep  4 22:59:59 2021
  Total elapsed time: 00:00:02