
  EPA STORM WATER MANAGEMENT MODEL - VERSION 5.1 (Build 5.3.0.dev0)
  --------------------------------------------------------------

  WARNING 04: minimum elevation drop used for Conduit Link_01776
  WARNING 04: minimum elevation drop used for Conduit Link_01779
  WARNING 04: minimum elevation drop used for Conduit Link_07234
  WARNING 02: maximum depth increased for Node Node_06087
  
  *********************************************************
  NOTE: The summary statistics displayed in this report are
  based on results found at every computational time step,  
  not just on results from each reporting time step.
  *********************************************************
  
  ****************
  Analysis Options
  ****************
  Flow Units ............... CMS
  Process Models:
    Rainfall/Runoff ........ YES
    RDII ................... NO
    Snowmelt ............... NO
    Groundwater ............ NO
    Flow Routing ........... YES
    Ponding Allowed ........ YES
    Water Quality .......... YES
  Infiltration Method ...... HORTON
  Flow Routing Method ...... DYNWAVE
  Surcharge Method ......... EXTRAN
  Starting Date ............ 01/02/2011 00:00:00
  Ending Date .............. 01/02/2011 06:00:00
  Antecedent Dry Days ...... 0.0
  Report Time Step ......... 00:15:00
  Wet Time Step ............ 00:05:00
  Dry Time Step ............ 01:00:00
  Routing Time Step ........ 60.00 sec
  Variable Time Step ....... YES
  Maximum Trials ........... 8
  Number of Threads ........ 4
  Head Tolerance ........... 0.001500 m
  
  
  **************************        Volume         Depth
  Runoff Quantity Continuity     hectare-m            mm
  **************************     ---------       -------
  Total Precipitation ......         1.144        40.000
  Evaporation Loss .........         0.000         0.000
  Infiltration Loss ........         0.051         1.781
  Surface Runoff ...........         1.102        38.540
  Final Storage ............         0.000         0.009
  Continuity Error (%) .....        -0.826
  
  
  **************************           COD
  Runoff Quality Continuity             kg
  **************************    ----------
  Initial Buildup ..........         0.000
  Surface Buildup ..........         0.000
  Wet Deposition ...........      3008.738
  Sweeping Removal .........         0.000
  Infiltration Loss ........       133.992
  BMP Removal ..............         0.000
  Surface Runoff ...........      2898.894
  Remaining Buildup ........         0.706
  Continuity Error (%) .....        -0.826
  
  
  **************************        Volume        Volume
  Flow Routing Continuity        hectare-m      10^6 ltr
  **************************     ---------     ---------
  Dry Weather Inflow .......         0.153         1.529
  Wet Weather Inflow .......         1.102        11.022
  Groundwater Inflow .......         0.000         0.000
  RDII Inflow ..............         0.000         0.000
  External Inflow ..........         0.000         0.000
  External Outflow .........         0.751         7.511
  Flooding Loss ............         0.514         5.141
  Evaporation Loss .........         0.000         0.000
  Exfiltration Loss ........         0.000         0.000
  Initial Stored Volume ....         0.077         0.773
  Final Stored Volume ......         0.257         2.569
  Continuity Error (%) .....       -14.238
  
  
  **************************           COD
  Quality Routing Continuity            kg
  **************************    ----------
  Dry Weather Inflow .......       845.606
  Wet Weather Inflow .......      2898.884
  Groundwater Inflow .......         0.000
  RDII Inflow ..............         0.000
  External Inflow ..........         0.000
  External Outflow .........      2332.029
  Flooding Loss ............      1386.488
  Exfiltration Loss ........         0.000
  Mass Reacted .............         0.000
  Initial Stored Mass ......       427.257
  Final Stored Mass ........       640.271
  Continuity Error (%) .....        -4.484
  
  
  *************************
  Highest Continuity Errors
  *************************
  Node Node_07272 (-92.35%)
  Node Node_04713 (-62.46%)
  Node Node_04715 (-35.57%)
  Node Node_04714 (-20.08%)
  Node Node_07271 (15.29%)
  
  
  ***************************
  Time-Step Critical Elements
  ***************************
  Link Link_02129 (56.23%)
  Link Link_01778 (31.92%)
  Link Link_07221 (2.11%)
  Link Link_07277 (1.88%)
  Link Link_02077 (1.85%)
  
  
  ********************************
  Highest Flow Instability Indexes
  ********************************
  Link Link_01558 (78)
  Link Link_01336 (77)
  Link Link_01324 (77)
  Link Link_01787 (74)
  Link Link_01335 (72)
  
  
  *************************
  Routing Time Step Summary
  *************************
  Minimum Time Step           :     5.00 sec
  Average Time Step           :     5.00 sec
  Maximum Time Step           :     5.00 sec
  Percent in Steady State     :     0.00
  Average Iterations per Step :     6.73
  Percent Not Converging      :    73.33
  
  
  ***************************
  Subcatchment Runoff Summary
  ***************************
  
  ------------------------------------------------------------------------------------------------------------------------------
                            Total      Total      Total      Total     Imperv       Perv      Total       Total     Peak  Runoff
                           Precip      Runon       Evap      Infil     Runoff     Runoff     Runoff      Runoff   Runoff   Coeff
  Subcatchment                 mm         mm         mm         mm         mm         mm         mm    10^6 ltr      CMS
  ------------------------------------------------------------------------------------------------------------------------------
  2707                      40.00       0.00       0.00       1.79      10.00      28.54      38.54        0.04     0.01   0.964
  2708                      40.00       0.00       0.00       1.79      10.00      28.54      38.54        0.04     0.01   0.964
  2709                      40.00       0.00       0.00       1.79      10.00      28.54      38.54        0.04     0.01   0.964
  2710                      40.00       0.00       0.00       1.79      10.00      28.54      38.54        0.04     0.01   0.964
  2712                      40.00       0.00       0.00       1.79      10.00      28.54      38.54        0.04     0.01   0.964
  2713                      40.00       0.00       0.00       1.79      10.00      28.54      38.54        0.04     0.01   0.964
  2714                      40.00       0.00       0.00       1.79      10.00      28.54      38.54        0.04     0.01   0.964
  2715                      40.00       0.00       0.00       1.79      10.00      28.54      38.54        0.04     0.01   0.964
  2716                      40.00       0.00       0.00       1.79      10.00      28.54      38.54        0.04     0.01   0.964
  2717                      40.00       0.00       0.00       1.79      10.00      28.54      38.54        0.04     0.01   0.964
  2718                      40.00       0.00       0.00       1.79      10.00      28.54      38.54        0.04     0.01   0.964
  2719                      40.00       0.00       0.00       1.79      10.00      28.54      38.54        0.04     0.01   0.964
  2721                      40.00       0.00       0.00       1.79      10.00      28.54      38.54        0.04     0.01   0.964
  2722                      40.00       0.00       0.00       1.79      10.00      28.54      38.54        0.04     0.01   0.964
  2723                      40.00       0.00       0.00       1.79      10.00      28.54      38.54        0.04     0.01   0.964
  2724                      40.00       0.00       0.00       1.79      10.00      28.54      38.54        0.04     0.01   0.964
  2725                      40.00       0.00       0.00       1.79      10.00      28.54      38.54        0.04     0.01   0.964
  2726                      40.00       0.00       0.00       1.79      10.00      28.54      38.54        0.04     0.01   0.964
  2727                      40.00       0.00       0.00       1.79      10.00      28.54      38.54        0.04     0.01   0.964
  2728                      40.00       0.00       0.00       1.79      10.00      28.54      38.54        0.04     0.01   0.964
  2729                      40.00       0.00       0.00       1.79      10.00      28.54      38.54        0.04     0.01   0.964
  2730                      40.00       0.00       0.00       1.79      10.00      28.54      38.54        0.04     0.01   0.964
  2731                      40.00       0.00       0.00       1.79      10.00      28.54      38.54        0.04     0.01   0.964
  2732                      40.00       0.00       0.00       1.79      10.00      28.54      38.54        0.04     0.01   0.964
  2733                      40.00       0.00       0.00       1.79      10.00      28.54      38.54        0.04     0.01   0.964
  2734                      40.00       0.00       0.00       1.79      10.00      28.54      38.54        0.04     0.01   0.964
  2735                      40.00       0.00       0.00       1.79      10.00      28.54      38.54        0.04     0.01   0.964
  2736                      40.00       0.00       0.00       1.79      10.00      28.54      38.54        0.04     0.01   0.964
  2737                      40.00       0.00       0.00       1.79      10.00      28.54      38.54        0.04     0.01   0.964
  2738                      40.00       0.00       0.00       1.79      10.00      28.54      38.54        0.04     0.01   0.964
  2739                      40.00       0.00       0.00       1.79      10.00      28.54      38.54        0.04     0.01   0.964
  2740                      40.00       0.00       0.00       1.79      10.00      28.54      38.54        0.04     0.01   0.964
  2741                      40.00       0.00       0.00       1.79      10.00      28.54      38.54        0.04     0.01   0.964
  2742                      40.00       0.00       0.00       1.79      10.00      28.54      38.54        0.04     0.01   0.964
  2743                      40.00       0.00       0.00       1.79      10.00      28.54      38.54        0.04     0.01   0.964
  2744                      40.00       0.00       0.00       1.79      10.00      28.54      38.54        0.04     0.01   0.964
  2745                      40.00       0.00       0.00       1.79      10.00      28.54      38.54        0.04     0.01   0.964
  2746                      40.00       0.00       0.00       1.79      10.00      28.54      38.54        0.04     0.01   0.964
  2747                      40.00       0.00       0.00       1.79      10.00      28.54      38.54        0.04     0.01   0.964
  2748                      40.00       0.00       0.00       1.79      10.00      28.54      38.54        0.04     0.01   0.964
  2749                      40.00       0.00       0.00       1.79      10.00      28.54      38.54        0.04     0.01   0.964
  2750                      40.00       0.00       0.00       1.79      10.00      28.54      38.54        0.04     0.01   0.964
  2751                      40.00       0.00       0.00       1.79      10.00      28.54      38.54        0.04     0.01   0.964
  2752                      40.00       0.00       0.00       1.79      10.00      28.54      38.54        0.04     0.01   0.964
  2753                      40.00       0.00       0.00       1.79      10.00      28.54      38.54        0.04     0.01   0.964
  2754                      40.00       0.00       0.00       1.79      10.00      28.54      38.54        0.04     0.01   0.964
  2755                      40.00       0.00       0.00       1.79      10.00      28.54      38.54        0.04     0.01   0.964
  2756                      40.00       0.00       0.00       1.79      10.00      28.54      38.54        0.04     0.01   0.964
  2964                      40.00       0.00       0.00       1.79      10.00      28.54      38.54        0.04     0.01   0.964
  2969                      40.00       0.00       0.00       1.79      10.00      28.54      38.54        0.04     0.01   0.964
  2970                      40.00       0.00       0.00       1.79      10.00      28.54      38.54        0.04     0.01   0.964
  2974                      40.00       0.00       0.00       1.79      10.00      28.54      38.54        0.04     0.01   0.964
  2975                      40.00       0.00       0.00       1.79      10.00      28.54      38.54        0.04     0.01   0.964
  2976                      40.00       0.00       0.00       1.79      10.00      28.54      38.54        0.04     0.01   0.964
  2977                      40.00       0.00       0.00       1.79      10.00      28.54      38.54        0.04     0.01   0.964
  2978                      40.00       0.00       0.00       1.79      10.00      28.54      38.54        0.04     0.01   0.964
  2979                      40.00       0.00       0.00       1.79      10.00      28.54      38.54        0.04     0.01   0.964
  2980                      40.00       0.00       0.00       1.79      10.00      28.54      38.54        0.04     0.01   0.964
  2981                      40.00       0.00       0.00       1.79      10.00      28.54      38.54        0.04     0.01   0.964
  2982                      40.00       0.00       0.00       1.79      10.00      28.54      38.54        0.04     0.01   0.964
  2984                      40.00       0.00       0.00       1.79      10.00      28.54      38.54        0.04     0.01   0.964
  2985                      40.00       0.00       0.00       1.79      10.00      28.54      38.54        0.04     0.01   0.964
  3925                      40.00       0.00       0.00       1.79      10.00      28.54      38.54        0.04     0.01   0.964
  3926                      40.00       0.00       0.00       1.79      10.00      28.54      38.54        0.04     0.01   0.964
  3927                      40.00       0.00       0.00       1.79      10.00      28.54      38.54        0.04     0.01   0.964
  3928                      40.00       0.00       0.00       1.79      10.00      28.54      38.54        0.04     0.01   0.964
  3929                      40.00       0.00       0.00       1.79      10.00      28.54      38.54        0.04     0.01   0.964
  3930                      40.00       0.00       0.00       1.79      10.00      28.54      38.54        0.04     0.01   0.964
  3931                      40.00       0.00       0.00       1.79      10.00      28.54      38.54        0.04     0.01   0.964
  3932                      40.00       0.00       0.00       1.79      10.00      28.54      38.54        0.04     0.01   0.964
  3933                      40.00       0.00       0.00       1.79      10.00      28.54      38.54        0.04     0.01   0.964
  3934                      40.00       0.00       0.00       1.79      10.00      28.54      38.54        0.04     0.01   0.964
  3935                      40.00       0.00       0.00       1.79      10.00      28.54      38.54        0.04     0.01   0.964
  3936                      40.00       0.00       0.00       1.79      10.00      28.54      38.54        0.04     0.01   0.964
  3937                      40.00       0.00       0.00       1.79      10.00      28.54      38.54        0.04     0.01   0.964
  3938                      40.00       0.00       0.00       1.79      10.00      28.54      38.54        0.04     0.01   0.964
  3939                      40.00       0.00       0.00       1.79      10.00      28.54      38.54        0.04     0.01   0.964
  3940                      40.00       0.00       0.00       1.79      10.00      28.54      38.54        0.04     0.01   0.964
  3941                      40.00       0.00       0.00       1.79      10.00      28.54      38.54        0.04     0.01   0.964
  3942                      40.00       0.00       0.00       1.79      10.00      28.54      38.54        0.04     0.01   0.964
  3943                      40.00       0.00       0.00       1.79      10.00      28.54      38.54        0.04     0.01   0.964
  3944                      40.00       0.00       0.00       1.79      10.00      28.54      38.54        0.04     0.01   0.964
  3945                      40.00       0.00       0.00       1.79      10.00      28.54      38.54        0.04     0.01   0.964
  3946                      40.00       0.00       0.00       1.79      10.00      28.54      38.54        0.04     0.01   0.964
  3947                      40.00       0.00       0.00       1.79      10.00      28.54      38.54        0.04     0.01   0.964
  3948                      40.00       0.00       0.00       1.79      10.00      28.54      38.54        0.04     0.01   0.964
  3949                      40.00       0.00       0.00       1.79      10.00      28.54      38.54        0.04     0.01   0.964
  3950                      40.00       0.00       0.00       1.79      10.00      28.54      38.54        0.04     0.01   0.964
  3951                      40.00       0.00       0.00       1.79      10.00      28.54      38.54        0.04     0.01   0.964
  3952                      40.00       0.00       0.00       1.79      10.00      28.54      38.54        0.04     0.01   0.964
  3953                      40.00       0.00       0.00       1.79      10.00      28.54      38.54        0.04     0.01   0.964
  3954                      40.00       0.00       0.00       1.79      10.00      28.54      38.54        0.04     0.01   0.964
  3955                      40.00       0.00       0.00       1.79      10.00      28.54      38.54        0.04     0.01   0.964
  3956                      40.00       0.00       0.00       1.79      10.00      28.54      38.54        0.04     0.01   0.964
  4032                      40.00       0.00       0.00       1.79      10.00      28.54      38.54        0.04     0.01   0.964
  4033                      40.00       0.00       0.00       1.79      10.00      28.54      38.54        0.04     0.01   0.964
  4041                      40.00       0.00       0.00       1.79      10.00      28.54      38.54        0.04     0.01   0.964
  4051                      40.00       0.00       0.00       1.79      10.00      28.54      38.54        0.04     0.01   0.964
  4055                      40.00       0.00       0.00       1.79      10.00      28.54      38.54        0.04     0.01   0.964
  4056                      40.00       0.00       0.00       1.79      10.00      28.54      38.54        0.04     0.01   0.964
  4058                      40.00       0.00       0.00       1.79      10.00      28.54      38.54        0.04     0.01   0.964
  4385                      40.00       0.00       0.00       1.79      10.00      28.54      38.54        0.04     0.01   0.964
  4386                      40.00       0.00       0.00       1.79      10.00      28.54      38.54        0.04     0.01   0.964
  4387                      40.00       0.00       0.00       1.79      10.00      28.54      38.54        0.04     0.01   0.964
  4388                      40.00       0.00       0.00       1.79      10.00      28.54      38.54        0.04     0.01   0.964
  4389                      40.00       0.00       0.00       1.79      10.00      28.54      38.54        0.04     0.01   0.964
  4390                      40.00       0.00       0.00       1.79      10.00      28.54      38.54        0.04     0.01   0.964
  4391                      40.00       0.00       0.00       1.79      10.00      28.54      38.54        0.04     0.01   0.964
  4392                      40.00       0.00       0.00       1.79      10.00      28.54      38.54        0.04     0.01   0.964
  4393                      40.00       0.00       0.00       1.79      10.00      28.54      38.54        0.04     0.01   0.964
  4394                      40.00       0.00       0.00       1.79      10.00      28.54      38.54        0.04     0.01   0.964
  4395                      40.00       0.00       0.00       1.79      10.00      28.54      38.54        0.04     0.01   0.964
  4396                      40.00       0.00       0.00       1.79      10.00      28.54      38.54        0.04     0.01   0.964
  4397                      40.00       0.00       0.00       1.79      10.00      28.54      38.54        0.04     0.01   0.964
  4398                      40.00       0.00       0.00       1.79      10.00      28.54      38.54        0.04     0.01   0.964
  4429                      40.00       0.00       0.00       1.79      10.00      28.54      38.54        0.04     0.01   0.964
  4430                      40.00       0.00       0.00       1.79      10.00      28.54      38.54        0.04     0.01   0.964
  4431                      40.00       0.00       0.00       1.79      10.00      28.54      38.54        0.04     0.01   0.964
  4432                      40.00       0.00       0.00       1.79      10.00      28.54      38.54        0.04     0.01   0.964
  4433                      40.00       0.00       0.00       1.79      10.00      28.54      38.54        0.04     0.01   0.964
  4434                      40.00       0.00       0.00       1.79      10.00      28.54      38.54        0.04     0.01   0.964
  4435                      40.00       0.00       0.00       1.79      10.00      28.54      38.54        0.04     0.01   0.964
  4436                      40.00       0.00       0.00       1.79      10.00      28.54      38.54        0.04     0.01   0.964
  4437                      40.00       0.00       0.00       1.79      10.00      28.54      38.54        0.04     0.01   0.964
  4438                      40.00       0.00       0.00       1.79      10.00      28.54      38.54        0.04     0.01   0.964
  4439                      40.00       0.00       0.00       1.79      10.00      28.54      38.54        0.04     0.01   0.964
  4440                      40.00       0.00       0.00       1.79      10.00      28.54      38.54        0.04     0.01   0.964
  4441                      40.00       0.00       0.00       1.79      10.00      28.54      38.54        0.04     0.01   0.964
  4442                      40.00       0.00       0.00       1.79      10.00      28.54      38.54        0.04     0.01   0.964
  4443                      40.00       0.00       0.00       1.79      10.00      28.54      38.54        0.04     0.01   0.964
  4444                      40.00       0.00       0.00       1.79      10.00      28.54      38.54        0.04     0.01   0.964
  4445                      40.00       0.00       0.00       1.79      10.00      28.54      38.54        0.04     0.01   0.964
  4446                      40.00       0.00       0.00       1.79      10.00      28.54      38.54        0.04     0.01   0.964
  4447                      40.00       0.00       0.00       1.79      10.00      28.54      38.54        0.04     0.01   0.964
  4448                      40.00       0.00       0.00       1.79      10.00      28.54      38.54        0.04     0.01   0.964
  4449                      40.00       0.00       0.00       1.79      10.00      28.54      38.54        0.04     0.01   0.964
  4450                      40.00       0.00       0.00       1.79      10.00      28.54      38.54        0.04     0.01   0.964
  4451                      40.00       0.00       0.00       1.79      10.00      28.54      38.54        0.04     0.01   0.964
  4452                      40.00       0.00       0.00       1.79      10.00      28.54      38.54        0.04     0.01   0.964
  4453                      40.00       0.00       0.00       1.79      10.00      28.54      38.54        0.04     0.01   0.964
  4454                      40.00       0.00       0.00       1.79      10.00      28.54      38.54        0.04     0.01   0.964
  4462                      40.00       0.00       0.00       1.79      10.00      28.54      38.54        0.04     0.01   0.964
  4463                      40.00       0.00       0.00       1.79      10.00      28.54      38.54        0.04     0.01   0.964
  4563                      40.00       0.00       0.00       1.79      10.00      28.54      38.54        0.04     0.01   0.964
  4564                      40.00       0.00       0.00       1.79      10.00      28.54      38.54        0.04     0.01   0.964
  4565                      40.00       0.00       0.00       1.79      10.00      28.54      38.54        0.04     0.01   0.964
  4566                      40.00       0.00       0.00       1.79      10.00      28.54      38.54        0.04     0.01   0.964
  4567                      40.00       0.00       0.00       1.79      10.00      28.54      38.54        0.04     0.01   0.964
  4568                      40.00       0.00       0.00       1.79      10.00      28.54      38.54        0.04     0.01   0.964
  4569                      40.00       0.00       0.00       1.79      10.00      28.54      38.54        0.04     0.01   0.964
  4570                      40.00       0.00       0.00       1.79      10.00      28.54      38.54        0.04     0.01   0.964
  4571                      40.00       0.00       0.00       1.79      10.00      28.54      38.54        0.04     0.01   0.964
  4572                      40.00       0.00       0.00       1.79      10.00      28.54      38.54        0.04     0.01   0.964
  4573                      40.00       0.00       0.00       1.79      10.00      28.54      38.54        0.04     0.01   0.964
  4574                      40.00       0.00       0.00       1.79      10.00      28.54      38.54        0.04     0.01   0.964
  4575                      40.00       0.00       0.00       1.79      10.00      28.54      38.54        0.04     0.01   0.964
  4576                      40.00       0.00       0.00       1.79      10.00      28.54      38.54        0.04     0.01   0.964
  4577                      40.00       0.00       0.00       1.79      10.00      28.54      38.54        0.04     0.01   0.964
  4578                      40.00       0.00       0.00       1.79      10.00      28.54      38.54        0.04     0.01   0.964
  4579                      40.00       0.00       0.00       1.79      10.00      28.54      38.54        0.04     0.01   0.964
  4580                      40.00       0.00       0.00       1.79      10.00      28.54      38.54        0.04     0.01   0.964
  4581                      40.00       0.00       0.00       1.79      10.00      28.54      38.54        0.04     0.01   0.964
  4624                      40.00       0.00       0.00       1.79      10.00      28.54      38.54        0.04     0.01   0.964
  4625                      40.00       0.00       0.00       1.79      10.00      28.54      38.54        0.04     0.01   0.964
  4644                      40.00       0.00       0.00       1.79      10.00      28.54      38.54        0.04     0.01   0.964
  4645                      40.00       0.00       0.00       1.79      10.00      28.54      38.54        0.04     0.01   0.964
  4646                      40.00       0.00       0.00       1.79      10.00      28.54      38.54        0.04     0.01   0.964
  4679                      40.00       0.00       0.00       1.79      10.00      28.54      38.54        0.04     0.01   0.964
  4680                      40.00       0.00       0.00       1.79      10.00      28.54      38.54        0.04     0.01   0.964
  4681                      40.00       0.00       0.00       1.79      10.00      28.54      38.54        0.04     0.01   0.964
  4682                      40.00       0.00       0.00       1.79      10.00      28.54      38.54        0.04     0.01   0.964
  4683                      40.00       0.00       0.00       1.79      10.00      28.54      38.54        0.04     0.01   0.964
  4711                      40.00       0.00       0.00       1.79      10.00      28.54      38.54        0.04     0.01   0.964
  4712                      40.00       0.00       0.00       1.79      10.00      28.54      38.54        0.04     0.01   0.964
  4713                      40.00       0.00       0.00       1.79      10.00      28.54      38.54        0.04     0.01   0.964
  4714                      40.00       0.00       0.00       1.79      10.00      28.54      38.54        0.04     0.01   0.964
  4715                      40.00       0.00       0.00       1.79      10.00      28.54      38.54        0.04     0.01   0.964
  4716                      40.00       0.00       0.00       1.79      10.00      28.54      38.54        0.04     0.01   0.964
  4717                      40.00       0.00       0.00       1.79      10.00      28.54      38.54        0.04     0.01   0.964
  4718                      40.00       0.00       0.00       1.79      10.00      28.54      38.54        0.04     0.01   0.964
  4722                      40.00       0.00       0.00       1.79      10.00      28.54      38.54        0.04     0.01   0.964
  4760                      40.00       0.00       0.00       1.79      10.00      28.54      38.54        0.04     0.01   0.964
  4761                      40.00       0.00       0.00       1.79      10.00      28.54      38.54        0.04     0.01   0.964
  4765                      40.00       0.00       0.00       1.79      10.00      28.54      38.54        0.04     0.01   0.964
  4766                      40.00       0.00       0.00       1.79      10.00      28.54      38.54        0.04     0.01   0.964
  4767                      40.00       0.00       0.00       1.79      10.00      28.54      38.54        0.04     0.01   0.964
  4768                      40.00       0.00       0.00       1.79      10.00      28.54      38.54        0.04     0.01   0.964
  4769                      40.00       0.00       0.00       1.79      10.00      28.54      38.54        0.04     0.01   0.964
  4855                      40.00       0.00       0.00       1.79      10.00      28.54      38.54        0.04     0.01   0.964
  4856                      40.00       0.00       0.00       1.79      10.00      28.54      38.54        0.04     0.01   0.964
  5284                      40.00       0.00       0.00       1.79      10.00      28.54      38.54        0.04     0.01   0.964
  5285                      40.00       0.00       0.00       1.79      10.00      28.54      38.54        0.04     0.01   0.964
  5286                      40.00       0.00       0.00       1.79      10.00      28.54      38.54        0.04     0.01   0.964
  5287                      40.00       0.00       0.00       1.79      10.00      28.54      38.54        0.04     0.01   0.964
  5288                      40.00       0.00       0.00       1.79      10.00      28.54      38.54        0.04     0.01   0.964
  5289                      40.00       0.00       0.00       1.79      10.00      28.54      38.54        0.04     0.01   0.964
  5290                      40.00       0.00       0.00       1.79      10.00      28.54      38.54        0.04     0.01   0.964
  5291                      40.00       0.00       0.00       1.79      10.00      28.54      38.54        0.04     0.01   0.964
  5292                      40.00       0.00       0.00       1.79      10.00      28.54      38.54        0.04     0.01   0.964
  5293                      40.00       0.00       0.00       1.79      10.00      28.54      38.54        0.04     0.01   0.964
  5294                      40.00       0.00       0.00       1.79      10.00      28.54      38.54        0.04     0.01   0.964
  5295                      40.00       0.00       0.00       1.79      10.00      28.54      38.54        0.04     0.01   0.964
  5296                      40.00       0.00       0.00       1.79      10.00      28.54      38.54        0.04     0.01   0.964
  5297                      40.00       0.00       0.00       1.79      10.00      28.54      38.54        0.04     0.01   0.964
  5298                      40.00       0.00       0.00       1.79      10.00      28.54      38.54        0.04     0.01   0.964
  5299                      40.00       0.00       0.00       1.79      10.00      28.54      38.54        0.04     0.01   0.964
  5300                      40.00       0.00       0.00       1.79      10.00      28.54      38.54        0.04     0.01   0.964
  5301                      40.00       0.00       0.00       1.79      10.00      28.54      38.54        0.04     0.01   0.964
  5302                      40.00       0.00       0.00       1.79      10.00      28.54      38.54        0.04     0.01   0.964
  5303                      40.00       0.00       0.00       1.79      10.00      28.54      38.54        0.04     0.01   0.964
  5304                      40.00       0.00       0.00       1.79      10.00      28.54      38.54        0.04     0.01   0.964
  5305                      40.00       0.00       0.00       1.79      10.00      28.54      38.54        0.04     0.01   0.964
  5306                      40.00       0.00       0.00       1.79      10.00      28.54      38.54        0.04     0.01   0.964
  5307                      40.00       0.00       0.00       1.79      10.00      28.54      38.54        0.04     0.01   0.964
  5308                      40.00       0.00       0.00       1.79      10.00      28.54      38.54        0.04     0.01   0.964
  5309                      40.00       0.00       0.00       1.79      10.00      28.54      38.54        0.04     0.01   0.964
  5310                      40.00       0.00       0.00       1.79      10.00      28.54      38.54        0.04     0.01   0.964
  5311                      40.00       0.00       0.00       1.79      10.00      28.54      38.54        0.04     0.01   0.964
  5312                      40.00       0.00       0.00       1.79      10.00      28.54      38.54        0.04     0.01   0.964
  5313                      40.00       0.00       0.00       1.79      10.00      28.54      38.54        0.04     0.01   0.964
  5314                      40.00       0.00       0.00       1.79      10.00      28.54      38.54        0.04     0.01   0.964
  5315                      40.00       0.00       0.00       1.79      10.00      28.54      38.54        0.04     0.01   0.964
  5316                      40.00       0.00       0.00       1.79      10.00      28.54      38.54        0.04     0.01   0.964
  5317                      40.00       0.00       0.00       1.79      10.00      28.54      38.54        0.04     0.01   0.964
  5318                      40.00       0.00       0.00       1.79      10.00      28.54      38.54        0.04     0.01   0.964
  5319                      40.00       0.00       0.00       1.79      10.00      28.54      38.54        0.04     0.01   0.964
  5320                      40.00       0.00       0.00       1.79      10.00      28.54      38.54        0.04     0.01   0.964
  5321                      40.00       0.00       0.00       1.79      10.00      28.54      38.54        0.04     0.01   0.964
  5322                      40.00       0.00       0.00       1.79      10.00      28.54      38.54        0.04     0.01   0.964
  5323                      40.00       0.00       0.00       1.79      10.00      28.54      38.54        0.04     0.01   0.964
  5324                      40.00       0.00       0.00       1.79      10.00      28.54      38.54        0.04     0.01   0.964
  5325                      40.00       0.00       0.00       1.79      10.00      28.54      38.54        0.04     0.01   0.964
  5326                      40.00       0.00       0.00       1.79      10.00      28.54      38.54        0.04     0.01   0.964
  5327                      40.00       0.00       0.00       1.79      10.00      28.54      38.54        0.04     0.01   0.964
  5328                      40.00       0.00       0.00       1.79      10.00      28.54      38.54        0.04     0.01   0.964
  5329                      40.00       0.00       0.00       1.79      10.00      28.54      38.54        0.04     0.01   0.964
  5330                      40.00       0.00       0.00       1.79      10.00      28.54      38.54        0.04     0.01   0.964
  5333                      40.00       0.00       0.00       1.79      10.00      28.54      38.54        0.04     0.01   0.964
  5334                      40.00       0.00       0.00       1.79      10.00      28.54      38.54        0.04     0.01   0.964
  6040                      40.00       0.00       0.00       1.79      10.00      28.54      38.54        0.04     0.01   0.964
  6041                      40.00       0.00       0.00       1.79      10.00      28.54      38.54        0.04     0.01   0.964
  6162                      40.00       0.00       0.00       1.79      10.00      28.54      38.54        0.04     0.01   0.964
  7207                      40.00       0.00       0.00       1.79      10.00      28.54      38.54        0.04     0.01   0.964
  7208                      40.00       0.00       0.00       1.79      10.00      28.54      38.54        0.04     0.01   0.964
  7213                      40.00       0.00       0.00       1.79      10.00      28.54      38.54        0.04     0.01   0.964
  7214                      40.00       0.00       0.00       1.79      10.00      28.54      38.54        0.04     0.01   0.964
  7219                      40.00       0.00       0.00       1.79      10.00      28.54      38.54        0.04     0.01   0.964
  7220                      40.00       0.00       0.00       1.79      10.00      28.54      38.54        0.04     0.01   0.964
  7221                      40.00       0.00       0.00       1.79      10.00      28.54      38.54        0.04     0.01   0.964
  7225                      40.00       0.00       0.00       1.79      10.00      28.54      38.54        0.04     0.01   0.964
  7229                      40.00       0.00       0.00       1.79      10.00      28.54      38.54        0.04     0.01   0.964
  7231                      40.00       0.00       0.00       1.79      10.00      28.54      38.54        0.04     0.01   0.964
  7268                      40.00       0.00       0.00       1.79      10.00      28.54      38.54        0.04     0.01   0.964
  7269                      40.00       0.00       0.00       1.79      10.00      28.54      38.54        0.04     0.01   0.964
  7271                      40.00       0.00       0.00       1.79      10.00      28.54      38.54        0.04     0.01   0.964
  7272                      40.00       0.00       0.00       1.79      10.00      28.54      38.54        0.04     0.01   0.964
  7273                      40.00       0.00       0.00       1.79      10.00      28.54      38.54        0.04     0.01   0.964
  7433                      40.00       0.00       0.00       1.79      10.00      28.54      38.54        0.04     0.01   0.964
  7434                      40.00       0.00       0.00       1.79      10.00      28.54      38.54        0.04     0.01   0.964
  7544                      40.00       0.00       0.00       1.79      10.00      28.54      38.54        0.04     0.01   0.964
  7545                      40.00       0.00       0.00       1.79      10.00      28.54      38.54        0.04     0.01   0.964
  8737                      40.00       0.00       0.00       1.79      10.00      28.54      38.54        0.04     0.01   0.964
  8818                      40.00       0.00       0.00       1.79      10.00      28.54      38.54        0.04     0.01   0.964
  9942                      40.00       0.00       0.00       1.79      10.00      28.54      38.54        0.04     0.01   0.964
  9957                      40.00       0.00       0.00       1.79      10.00      28.54      38.54        0.04     0.01   0.964
  4399                      40.00       0.00       0.00       1.71      10.00      28.48      38.48        0.01     0.00   0.962
  4400                      40.00       0.00       0.00       1.71      10.00      28.48      38.48        0.01     0.00   0.962
  4401                      40.00       0.00       0.00       1.71      10.00      28.48      38.48        0.01     0.00   0.962
  4402                      40.00       0.00       0.00       1.71      10.00      28.48      38.48        0.01     0.00   0.962
  4403                      40.00       0.00       0.00       1.71      10.00      28.48      38.48        0.01     0.00   0.962
  4404                      40.00       0.00       0.00       1.71      10.00      28.48      38.48        0.01     0.00   0.962
  4405                      40.00       0.00       0.00       1.71      10.00      28.48      38.48        0.01     0.00   0.962
  4406                      40.00       0.00       0.00       1.71      10.00      28.48      38.48        0.01     0.00   0.962
  4407                      40.00       0.00       0.00       1.71      10.00      28.48      38.48        0.01     0.00   0.962
  4408                      40.00       0.00       0.00       1.71      10.00      28.48      38.48        0.01     0.00   0.962
  4409                      40.00       0.00       0.00       1.71      10.00      28.48      38.48        0.01     0.00   0.962
  4410                      40.00       0.00       0.00       1.71      10.00      28.48      38.48        0.01     0.00   0.962
  4411                      40.00       0.00       0.00       1.71      10.00      28.48      38.48        0.01     0.00   0.962
  4412                      40.00       0.00       0.00       1.71      10.00      28.48      38.48        0.01     0.00   0.962
  4423                      40.00       0.00       0.00       1.71      10.00      28.48      38.48        0.01     0.00   0.962
  4424                      40.00       0.00       0.00       1.71      10.00      28.48      38.48        0.01     0.00   0.962
  4425                      40.00       0.00       0.00       1.71      10.00      28.48      38.48        0.01     0.00   0.962
  4426                      40.00       0.00       0.00       1.71      10.00      28.48      38.48        0.01     0.00   0.962
  4427                      40.00       0.00       0.00       1.71      10.00      28.48      38.48        0.01     0.00   0.962
  4428                      40.00       0.00       0.00       1.71      10.00      28.48      38.48        0.01     0.00   0.962
  4455                      40.00       0.00       0.00       1.71      10.00      28.48      38.48        0.01     0.00   0.962
  4456                      40.00       0.00       0.00       1.71      10.00      28.48      38.48        0.01     0.00   0.962
  4457                      40.00       0.00       0.00       1.71      10.00      28.48      38.48        0.01     0.00   0.962
  4458                      40.00       0.00       0.00       1.71      10.00      28.48      38.48        0.01     0.00   0.962
  4459                      40.00       0.00       0.00       1.71      10.00      28.48      38.48        0.01     0.00   0.962
  4460                      40.00       0.00       0.00       1.71      10.00      28.48      38.48        0.01     0.00   0.962
  4461                      40.00       0.00       0.00       1.71      10.00      28.48      38.48        0.01     0.00   0.962
  4464                      40.00       0.00       0.00       1.71      10.00      28.48      38.48        0.01     0.00   0.962
  4465                      40.00       0.00       0.00       1.71      10.00      28.48      38.48        0.01     0.00   0.962
  4466                      40.00       0.00       0.00       1.71      10.00      28.48      38.48        0.01     0.00   0.962
  4467                      40.00       0.00       0.00       1.71      10.00      28.48      38.48        0.01     0.00   0.962
  4468                      40.00       0.00       0.00       1.71      10.00      28.48      38.48        0.01     0.00   0.962
  4469                      40.00       0.00       0.00       1.71      10.00      28.48      38.48        0.01     0.00   0.962
  4470                      40.00       0.00       0.00       1.71      10.00      28.48      38.48        0.01     0.00   0.962
  4471                      40.00       0.00       0.00       1.71      10.00      28.48      38.48        0.01     0.00   0.962
  4472                      40.00       0.00       0.00       1.71      10.00      28.48      38.48        0.01     0.00   0.962
  4473                      40.00       0.00       0.00       1.71      10.00      28.48      38.48        0.01     0.00   0.962
  4474                      40.00       0.00       0.00       1.71      10.00      28.48      38.48        0.01     0.00   0.962
  4628                      40.00       0.00       0.00       1.71      10.00      28.48      38.48        0.01     0.00   0.962
  4631                      40.00       0.00       0.00       1.71      10.00      28.48      38.48        0.01     0.00   0.962
  4632                      40.00       0.00       0.00       1.71      10.00      28.48      38.48        0.01     0.00   0.962
  4633                      40.00       0.00       0.00       1.71      10.00      28.48      38.48        0.01     0.00   0.962
  4634                      40.00       0.00       0.00       1.71      10.00      28.48      38.48        0.01     0.00   0.962
  4637                      40.00       0.00       0.00       1.71      10.00      28.48      38.48        0.01     0.00   0.962
  4686                      40.00       0.00       0.00       1.71      10.00      28.48      38.48        0.01     0.00   0.962
  4687                      40.00       0.00       0.00       1.71      10.00      28.48      38.48        0.01     0.00   0.962
  4688                      40.00       0.00       0.00       1.71      10.00      28.48      38.48        0.01     0.00   0.962
  5032                      40.00       0.00       0.00       1.71      10.00      28.48      38.48        0.01     0.00   0.962
  5331                      40.00       0.00       0.00       1.71      10.00      28.48      38.48        0.01     0.00   0.962
  5332                      40.00       0.00       0.00       1.71      10.00      28.48      38.48        0.01     0.00   0.962
  5335                      40.00       0.00       0.00       1.71      10.00      28.48      38.48        0.01     0.00   0.962
  5336                      40.00       0.00       0.00       1.71      10.00      28.48      38.48        0.01     0.00   0.962
  5337                      40.00       0.00       0.00       1.71      10.00      28.48      38.48        0.01     0.00   0.962
  5338                      40.00       0.00       0.00       1.71      10.00      28.48      38.48        0.01     0.00   0.962
  5339                      40.00       0.00       0.00       1.71      10.00      28.48      38.48        0.01     0.00   0.962
  5340                      40.00       0.00       0.00       1.71      10.00      28.48      38.48        0.01     0.00   0.962
  5341                      40.00       0.00       0.00       1.71      10.00      28.48      38.48        0.01     0.00   0.962
  5342                      40.00       0.00       0.00       1.71      10.00      28.48      38.48        0.01     0.00   0.962
  5343                      40.00       0.00       0.00       1.71      10.00      28.48      38.48        0.01     0.00   0.962
  5344                      40.00       0.00       0.00       1.71      10.00      28.48      38.48        0.01     0.00   0.962
  5345                      40.00       0.00       0.00       1.71      10.00      28.48      38.48        0.01     0.00   0.962
  5346                      40.00       0.00       0.00       1.71      10.00      28.48      38.48        0.01     0.00   0.962
  5347                      40.00       0.00       0.00       1.71      10.00      28.48      38.48        0.01     0.00   0.962
  5348                      40.00       0.00       0.00       1.71      10.00      28.48      38.48        0.01     0.00   0.962
  5349                      40.00       0.00       0.00       1.71      10.00      28.48      38.48        0.01     0.00   0.962
  5350                      40.00       0.00       0.00       1.71      10.00      28.48      38.48        0.01     0.00   0.962
  6088                      40.00       0.00       0.00       1.71      10.00      28.48      38.48        0.01     0.00   0.962
  7275                      40.00       0.00       0.00       1.71      10.00      28.48      38.48        0.01     0.00   0.962
  9955                      40.00       0.00       0.00       1.71      10.00      28.48      38.48        0.01     0.00   0.962
  9956                      40.00       0.00       0.00       1.71      10.00      28.48      38.48        0.01     0.00   0.962
  
  
  ****************************
  Subcatchment Washoff Summary
  ****************************
  
  ----------------------------------
                                 COD
  Subcatchment                    kg
  ----------------------------------
  2707                        10.137
  2708                        10.137
  2709                        10.137
  2710                        10.137
  2712                        10.137
  2713                        10.137
  2714                        10.137
  2715                        10.137
  2716                        10.137
  2717                        10.137
  2718                        10.137
  2719                        10.137
  2721                        10.137
  2722                        10.137
  2723                        10.137
  2724                        10.137
  2725                        10.137
  2726                        10.137
  2727                        10.137
  2728                        10.137
  2729                        10.137
  2730                        10.137
  2731                        10.137
  2732                        10.137
  2733                        10.137
  2734                        10.137
  2735                        10.137
  2736                        10.137
  2737                        10.137
  2738                        10.137
  2739                        10.137
  2740                        10.137
  2741                        10.137
  2742                        10.137
  2743                        10.137
  2744                        10.137
  2745                        10.137
  2746                        10.137
  2747                        10.137
  2748                        10.137
  2749                        10.137
  2750                        10.137
  2751                        10.137
  2752                        10.137
  2753                        10.137
  2754                        10.137
  2755                        10.137
  2756                        10.137
  2964                        10.137
  2969                        10.137
  2970                        10.137
  2974                        10.137
  2975                        10.137
  2976                        10.137
  2977                        10.137
  2978                        10.137
  2979                        10.137
  2980                        10.137
  2981                        10.137
  2982                        10.137
  2984                        10.137
  2985                        10.137
  3925                        10.137
  3926                        10.137
  3927                        10.137
  3928                        10.137
  3929                        10.137
  3930                        10.137
  3931                        10.137
  3932                        10.137
  3933                        10.137
  3934                        10.137
  3935                        10.137
  3936                        10.137
  3937                        10.137
  3938                        10.137
  3939                        10.137
  3940                        10.137
  3941                        10.137
  3942                        10.137
  3943                        10.137
  3944                        10.137
  3945                        10.137
  3946                        10.137
  3947                        10.137
  3948                        10.137
  3949                        10.137
  3950                        10.137
  3951                        10.137
  3952                        10.137
  3953                        10.137
  3954                        10.137
  3955                        10.137
  3956                        10.137
  4032                        10.137
  4033                        10.137
  4041                        10.137
  4051                        10.137
  4055                        10.137
  4056                        10.137
  4058                        10.137
  4385                        10.137
  4386                        10.137
  4387                        10.137
  4388                        10.137
  4389                        10.137
  4390                        10.137
  4391                        10.137
  4392                        10.137
  4393                        10.137
  4394                        10.137
  4395                        10.137
  4396                        10.137
  4397                        10.137
  4398                        10.137
  4429                        10.137
  4430                        10.137
  4431                        10.137
  4432                        10.137
  4433                        10.137
  4434                        10.137
  4435                        10.137
  4436                        10.137
  4437                        10.137
  4438                        10.137
  4439                        10.137
  4440                        10.137
  4441                        10.137
  4442                        10.137
  4443                        10.137
  4444                        10.137
  4445                        10.137
  4446                        10.137
  4447                        10.137
  4448                        10.137
  4449                        10.137
  4450                        10.137
  4451                        10.137
  4452                        10.137
  4453                        10.137
  4454                        10.137
  4462                        10.137
  4463                        10.137
  4563                        10.137
  4564                        10.137
  4565                        10.137
  4566                        10.137
  4567                        10.137
  4568                        10.137
  4569                        10.137
  4570                        10.137
  4571                        10.137
  4572                        10.137
  4573                        10.137
  4574                        10.137
  4575                        10.137
  4576                        10.137
  4577                        10.137
  4578                        10.137
  4579                        10.137
  4580                        10.137
  4581                        10.137
  4624                        10.137
  4625                        10.137
  4644                        10.137
  4645                        10.137
  4646                        10.137
  4679                        10.137
  4680                        10.137
  4681                        10.137
  4682                        10.137
  4683                        10.137
  4711                        10.137
  4712                        10.137
  4713                        10.137
  4714                        10.137
  4715                        10.137
  4716                        10.137
  4717                        10.137
  4718                        10.137
  4722                        10.137
  4760                        10.137
  4761                        10.137
  4765                        10.137
  4766                        10.137
  4767                        10.137
  4768                        10.137
  4769                        10.137
  4855                        10.137
  4856                        10.137
  5284                        10.137
  5285                        10.137
  5286                        10.137
  5287                        10.137
  5288                        10.137
  5289                        10.137
  5290                        10.137
  5291                        10.137
  5292                        10.137
  5293                        10.137
  5294                        10.137
  5295                        10.137
  5296                        10.137
  5297                        10.137
  5298                        10.137
  5299                        10.137
  5300                        10.137
  5301                        10.137
  5302                        10.137
  5303                        10.137
  5304                        10.137
  5305                        10.137
  5306                        10.137
  5307                        10.137
  5308                        10.137
  5309                        10.137
  5310                        10.137
  5311                        10.137
  5312                        10.137
  5313                        10.137
  5314                        10.137
  5315                        10.137
  5316                        10.137
  5317                        10.137
  5318                        10.137
  5319                        10.137
  5320                        10.137
  5321                        10.137
  5322                        10.137
  5323                        10.137
  5324                        10.137
  5325                        10.137
  5326                        10.137
  5327                        10.137
  5328                        10.137
  5329                        10.137
  5330                        10.137
  5333                        10.137
  5334                        10.137
  6040                        10.137
  6041                        10.137
  6162                        10.137
  7207                        10.137
  7208                        10.137
  7213                        10.137
  7214                        10.137
  7219                        10.137
  7220                        10.137
  7221                        10.137
  7225                        10.137
  7229                        10.137
  7231                        10.137
  7268                        10.137
  7269                        10.137
  7271                        10.137
  7272                        10.137
  7273                        10.137
  7433                        10.137
  7434                        10.137
  7544                        10.137
  7545                        10.137
  8737                        10.137
  8818                        10.137
  9942                        10.137
  9957                        10.137
  4399                         3.036
  4400                         3.036
  4401                         3.036
  4402                         3.036
  4403                         3.036
  4404                         3.036
  4405                         3.036
  4406                         3.036
  4407                         3.036
  4408                         3.036
  4409                         3.036
  4410                         3.036
  4411                         3.036
  4412                         3.036
  4423                         3.036
  4424                         3.036
  4425                         3.036
  4426                         3.036
  4427                         3.036
  4428                         3.036
  4455                         3.036
  4456                         3.036
  4457                         3.036
  4458                         3.036
  4459                         3.036
  4460                         3.036
  4461                         3.036
  4464                         3.036
  4465                         3.036
  4466                         3.036
  4467                         3.036
  4468                         3.036
  4469                         3.036
  4470                         3.036
  4471                         3.036
  4472                         3.036
  4473                         3.036
  4474                         3.036
  4628                         3.036
  4631                         3.036
  4632                         3.036
  4633                         3.036
  4634                         3.036
  4637                         3.036
  4686                         3.036
  4687                         3.036
  4688                         3.036
  5032                         3.036
  5331                         3.036
  5332                         3.036
  5335                         3.036
  5336                         3.036
  5337                         3.036
  5338                         3.036
  5339                         3.036
  5340                         3.036
  5341                         3.036
  5342                         3.036
  5343                         3.036
  5344                         3.036
  5345                         3.036
  5346                         3.036
  5347                         3.036
  5348                         3.036
  5349                         3.036
  5350                         3.036
  6088                         3.036
  7275                         3.036
  9955                         3.036
  9956                         3.036
  ----------------------------------
  System                    2898.894
  
  
  ******************
  Node Depth Summary
  ******************
  
  ---------------------------------------------------------------------------------
                                 Average  Maximum  Maximum  Time of Max    Reported
                                   Depth    Depth      HGL   Occurrence   Max Depth
  Node                 Type       Meters   Meters   Meters  days hr:min      Meters
  ---------------------------------------------------------------------------------
  Node_02706           JUNCTION     3.06     4.82   101.66     0  04:15        0.00
  Node_02707           JUNCTION     1.08     2.14   101.57     0  04:11        0.00
  Node_02708           JUNCTION     0.88     1.93   101.68     0  04:10        0.00
  Node_02709           JUNCTION     0.99     2.06   101.69     0  04:10        0.00
  Node_02711           JUNCTION     0.69     1.77   101.68     0  04:14        0.00
  Node_02712           JUNCTION     0.69     1.78   101.68     0  04:13        0.00
  Node_02713           JUNCTION     0.74     1.84   101.69     0  04:13        0.00
  Node_02714           JUNCTION     0.34     1.28   101.68     0  04:10        0.00
  Node_02715           JUNCTION     0.76     1.86   101.67     0  04:13        0.00
  Node_02716           JUNCTION     0.83     1.94   101.65     0  04:11        0.00
  Node_02717           JUNCTION     0.90     2.00   101.63     0  04:12        0.00
  Node_02718           JUNCTION     0.92     2.00   101.60     0  04:12        0.00
  Node_02720           JUNCTION     0.94     2.03   101.60     0  04:06        0.00
  Node_02721           JUNCTION     1.25     2.32   101.57     0  04:06        0.00
  Node_02722           JUNCTION     0.14     0.19   101.99     0  04:15        0.00
  Node_02723           JUNCTION     1.19     2.27   101.56     0  04:14        0.00
  Node_02724           JUNCTION     1.05     2.12   101.54     0  04:12        0.00
  Node_02725           JUNCTION     1.09     2.14   101.51     0  04:12        0.00
  Node_02726           JUNCTION     1.18     2.21   101.47     0  04:06        0.00
  Node_02727           JUNCTION     1.29     2.30   101.43     0  04:11        0.00
  Node_02728           JUNCTION     0.55     1.35   101.43     0  04:14        0.00
  Node_02729           JUNCTION     1.34     2.32   101.38     0  04:08        0.00
  Node_02730           JUNCTION     1.36     2.30   101.33     0  04:14        0.00
  Node_02731           JUNCTION     1.78     2.67   101.26     0  04:11        0.00
  Node_02732           JUNCTION     1.35     2.19   101.21     0  02:03        0.00
  Node_02733           JUNCTION     1.35     2.28   101.28     0  04:14        0.00
  Node_02734           JUNCTION     1.63     2.62   101.33     0  04:15        0.00
  Node_02735           JUNCTION     1.53     2.52   101.33     0  04:15        0.00
  Node_02736           JUNCTION     1.72     2.77   101.38     0  04:15        0.00
  Node_02737           JUNCTION     1.70     2.80   101.41     0  04:15        0.00
  Node_02738           JUNCTION     1.53     2.69   101.46     0  04:14        0.00
  Node_02739           JUNCTION     1.40     2.65   101.52     0  04:14        0.00
  Node_02740           JUNCTION     1.41     2.71   101.55     0  04:15        0.00
  Node_02741           JUNCTION     1.05     2.26   101.55     0  04:15        0.00
  Node_02742           JUNCTION     1.43     2.76   101.57     0  04:15        0.00
  Node_02743           JUNCTION     1.84     3.23   101.60     0  04:15        0.00
  Node_02744           JUNCTION     0.98     2.26   101.61     0  04:15        0.00
  Node_02745           JUNCTION     1.57     3.00   101.62     0  04:15        0.00
  Node_02746           JUNCTION     1.46     2.94   101.63     0  04:15        0.00
  Node_02747           JUNCTION     0.28     1.27   101.63     0  04:15        0.00
  Node_02748           JUNCTION     0.23     1.18   101.63     0  04:15        0.00
  Node_02749           JUNCTION     1.47     3.00   101.64     0  04:15        0.00
  Node_02750           JUNCTION     1.48     3.04   101.65     0  04:15        0.00
  Node_02751           JUNCTION     1.46     3.06   101.65     0  04:15        0.00
  Node_02752           JUNCTION     1.47     3.11   101.66     0  04:15        0.00
  Node_02753           JUNCTION     1.50     3.19   101.66     0  04:15        0.00
  Node_02754           JUNCTION     1.58     3.35   101.66     0  04:15        0.00
  Node_02755           JUNCTION     2.51     4.26   101.65     0  04:15        0.00
  Node_02963           JUNCTION     0.69     1.73   101.64     0  04:12        0.00
  Node_02968           JUNCTION     0.46     1.39   101.51     0  04:15        0.00
  Node_02969           JUNCTION     0.59     1.72   101.60     0  04:15        0.00
  Node_02973           JUNCTION     2.03     3.77   101.66     0  04:15        0.00
  Node_02974           JUNCTION     2.31     4.46   101.59     0  04:15        0.00
  Node_02975           JUNCTION     2.31     4.46   101.60     0  04:15        0.00
  Node_02976           JUNCTION     2.36     4.43   101.62     0  04:15        0.00
  Node_02977           JUNCTION     2.38     4.35   101.68     0  04:15        0.00
  Node_02978           JUNCTION     2.27     4.22   101.75     0  04:15        0.00
  Node_02979           JUNCTION     2.24     4.44   101.56     0  04:15        0.00
  Node_02980           JUNCTION     2.17     4.44   101.53     0  04:16        0.00
  Node_02981           JUNCTION     2.19     4.55   101.50     0  04:16        0.00
  Node_02983           JUNCTION     0.47     1.35   101.47     0  04:15        0.00
  Node_02984           JUNCTION     2.72     4.68   101.66     0  04:15        0.00
  Node_03924           JUNCTION     0.21     1.00   101.82     0  01:26        0.00
  Node_03925           JUNCTION     0.53     2.05   102.42     0  04:11        0.00
  Node_03926           JUNCTION     0.09     0.95   102.42     0  04:14        0.00
  Node_03927           JUNCTION     0.51     2.04   102.42     0  04:11        0.00
  Node_03928           JUNCTION     0.53     2.07   102.42     0  04:15        0.00
  Node_03929           JUNCTION     0.55     2.09   102.40     0  04:14        0.00
  Node_03930           JUNCTION     0.58     2.13   102.38     0  04:13        0.00
  Node_03931           JUNCTION     0.57     2.12   102.37     0  04:14        0.00
  Node_03932           JUNCTION     0.62     2.15   102.32     0  04:13        0.00
  Node_03933           JUNCTION     0.63     2.13   102.25     0  04:11        0.00
  Node_03934           JUNCTION     0.22     1.39   102.25     0  04:15        0.00
  Node_03935           JUNCTION     0.71     2.17   102.14     0  04:10        0.00
  Node_03936           JUNCTION     0.73     2.12   102.05     0  04:08        0.00
  Node_03937           JUNCTION     1.27     1.77   101.93     0  01:30        0.00
  Node_03938           JUNCTION     1.81     3.27   102.46     0  01:24        0.00
  Node_03939           JUNCTION     1.93     3.41   102.45     0  01:24        0.00
  Node_03940           JUNCTION     2.02     3.48   102.41     0  01:24        0.00
  Node_03941           JUNCTION     2.11     3.53   102.34     0  01:24        0.00
  Node_03942           JUNCTION     2.14     3.53   102.28     0  04:13        0.00
  Node_03943           JUNCTION     2.24     3.58   102.19     0  01:24        0.00
  Node_03944           JUNCTION     2.34     3.69   102.17     0  01:24        0.00
  Node_03945           JUNCTION     2.40     3.78   102.20     0  01:24        0.00
  Node_03946           JUNCTION     2.47     3.90   102.26     0  01:24        0.00
  Node_03947           JUNCTION     2.77     4.42   102.31     0  04:05        0.00
  Node_03948           JUNCTION     2.72     4.46   102.31     0  04:05        0.00
  Node_03949           JUNCTION     2.83     4.62   102.32     0  04:15        0.00
  Node_03950           JUNCTION     2.69     4.55   102.32     0  04:05        0.00
  Node_03951           JUNCTION     2.67     4.63   102.32     0  04:14        0.00
  Node_03952           JUNCTION     2.67     4.72   102.31     0  04:15        0.00
  Node_03953           JUNCTION     2.57     4.71   102.28     0  04:14        0.00
  Node_03954           JUNCTION     3.43     5.62   102.20     0  04:15        0.00
  Node_03955           JUNCTION     2.36     4.59   102.08     0  04:15        0.00
  Node_04031           JUNCTION     0.45     1.03   102.26     0  01:24        0.00
  Node_04032           JUNCTION     2.41     3.92   102.27     0  04:14        0.00
  Node_04040           JUNCTION     0.89     1.88   102.42     0  01:25        0.00
  Node_04050           JUNCTION     0.36     1.56   102.52     0  01:52        0.00
  Node_04054           JUNCTION     0.15     1.28   102.42     0  04:11        0.00
  Node_04055           JUNCTION     0.30     1.50   102.31     0  04:12        0.00
  Node_04057           JUNCTION     0.41     1.60   101.91     0  01:26        0.00
  Node_04384           JUNCTION     2.42     4.27   101.85     0  04:14        0.00
  Node_04385           JUNCTION     2.13     3.96   101.88     0  04:15        0.00
  Node_04386           JUNCTION     2.13     3.94   101.88     0  04:15        0.00
  Node_04387           JUNCTION     2.12     3.92   101.88     0  04:15        0.00
  Node_04388           JUNCTION     2.12     3.89   101.89     0  04:05        0.00
  Node_04389           JUNCTION     0.43     1.53   101.89     0  04:05        0.00
  Node_04390           JUNCTION     2.11     3.88   101.90     0  04:05        0.00
  Node_04391           JUNCTION     2.10     3.83   101.90     0  04:13        0.00
  Node_04392           JUNCTION     2.22     3.94   101.90     0  04:05        0.00
  Node_04393           JUNCTION     2.09     3.78   101.89     0  04:05        0.00
  Node_04394           JUNCTION     0.89     2.25   101.89     0  04:05        0.00
  Node_04395           JUNCTION     2.08     3.74   101.89     0  04:05        0.00
  Node_04396           JUNCTION     2.06     3.69   101.89     0  04:15        0.00
  Node_04397           JUNCTION     0.73     1.99   101.89     0  04:14        0.00
  Node_04428           JUNCTION     2.07     3.67   101.88     0  04:13        0.00
  Node_04429           JUNCTION     2.06     3.63   101.88     0  04:14        0.00
  Node_04430           JUNCTION     2.05     3.60   101.88     0  04:14        0.00
  Node_04431           JUNCTION     1.82     3.30   101.87     0  04:07        0.00
  Node_04432           JUNCTION     1.72     3.18   101.86     0  04:14        0.00
  Node_04433           JUNCTION     1.54     2.98   101.86     0  04:14        0.00
  Node_04434           JUNCTION     1.83     3.27   101.86     0  04:15        0.00
  Node_04435           JUNCTION     1.67     3.06   101.84     0  04:15        0.00
  Node_04436           JUNCTION     2.06     3.43   101.83     0  04:14        0.00
  Node_04437           JUNCTION     2.18     3.52   101.81     0  04:06        0.00
  Node_04438           JUNCTION     2.47     3.81   101.82     0  04:06        0.00
  Node_04439           JUNCTION     1.52     2.84   101.82     0  04:14        0.00
  Node_04440           JUNCTION     1.50     2.81   101.83     0  04:14        0.00
  Node_04441           JUNCTION     1.22     2.50   101.83     0  04:10        0.00
  Node_04442           JUNCTION     1.56     2.86   101.83     0  04:06        0.00
  Node_04443           JUNCTION     1.41     2.70   101.84     0  04:07        0.00
  Node_04444           JUNCTION     1.40     2.66   101.83     0  04:06        0.00
  Node_04445           JUNCTION     1.32     2.58   101.85     0  04:09        0.00
  Node_04446           JUNCTION     1.27     2.52   101.86     0  04:07        0.00
  Node_04447           JUNCTION     1.19     2.42   101.86     0  04:06        0.00
  Node_04448           JUNCTION     1.20     2.43   101.88     0  04:09        0.00
  Node_04449           JUNCTION     1.21     2.43   101.89     0  04:05        0.00
  Node_04450           JUNCTION     1.35     2.58   101.90     0  04:07        0.00
  Node_04451           JUNCTION     1.15     2.37   101.92     0  04:05        0.00
  Node_04452           JUNCTION     0.90     2.10   101.92     0  04:09        0.00
  Node_04453           JUNCTION     0.63     1.70   101.92     0  04:07        0.00
  Node_04461           JUNCTION     1.09     2.29   101.91     0  04:05        0.00
  Node_04462           JUNCTION     1.08     2.38   102.03     0  04:15        0.00
  Node_04562           JUNCTION     1.12     2.46   102.05     0  04:02        0.00
  Node_04563           JUNCTION     1.49     2.92   102.04     0  04:02        0.00
  Node_04564           JUNCTION     1.29     2.67   102.06     0  04:03        0.00
  Node_04565           JUNCTION     1.31     2.69   102.05     0  04:14        0.00
  Node_04566           JUNCTION     1.46     2.86   102.05     0  04:09        0.00
  Node_04567           JUNCTION     1.42     2.82   102.04     0  04:04        0.00
  Node_04568           JUNCTION     1.44     2.83   102.02     0  04:10        0.00
  Node_04569           JUNCTION     1.62     3.03   102.00     0  04:14        0.00
  Node_04570           JUNCTION     1.02     2.27   102.01     0  04:12        0.00
  Node_04571           JUNCTION     1.63     2.99   101.92     0  01:43        0.00
  Node_04572           JUNCTION     3.02     4.43   101.96     0  04:14        0.00
  Node_04573           JUNCTION     2.70     4.13   101.97     0  04:15        0.00
  Node_04574           JUNCTION     2.66     3.67   101.97     0  04:05        0.00
  Node_04575           JUNCTION     3.19     4.66   101.97     0  04:14        0.00
  Node_04576           JUNCTION     1.81     3.32   101.97     0  04:05        0.00
  Node_04577           JUNCTION     1.85     3.38   101.96     0  04:14        0.00
  Node_04578           JUNCTION     1.89     3.44   101.94     0  04:14        0.00
  Node_04579           JUNCTION     1.95     3.51   101.92     0  04:15        0.00
  Node_04580           JUNCTION     0.91     1.98   101.76     0  04:01        0.00
  Node_04623           JUNCTION     0.76     2.21   101.87     0  04:15        0.00
  Node_04624           JUNCTION     1.08     2.38   101.84     0  04:03        0.00
  Node_04643           JUNCTION     0.83     1.98   101.89     0  04:08        0.00
  Node_04644           JUNCTION     0.86     2.00   101.84     0  04:09        0.00
  Node_04645           JUNCTION     1.07     2.05   101.65     0  02:15        0.00
  Node_04678           JUNCTION     0.87     2.16   101.89     0  04:14        0.00
  Node_04679           JUNCTION     0.43     1.69   101.87     0  04:15        0.00
  Node_04680           JUNCTION     2.20     4.07   101.84     0  04:14        0.00
  Node_04681           JUNCTION     2.19     4.08   101.80     0  04:15        0.00
  Node_04682           JUNCTION     0.28     0.95   101.96     0  04:14        0.00
  Node_04710           JUNCTION     0.70     2.12   102.11     0  03:05        0.00
  Node_04711           JUNCTION     0.74     2.61   102.60     0  04:56        0.00
  Node_04712           JUNCTION     0.74     2.61   102.62     0  02:52        0.00
  Node_04713           JUNCTION     0.70     2.58   102.63     0  01:58        0.00
  Node_04714           JUNCTION     0.73     2.60   102.65     0  02:02        0.00
  Node_04715           JUNCTION     0.70     2.52   102.61     0  02:45        0.00
  Node_04716           JUNCTION     0.69     2.46   102.59     0  02:52        0.00
  Node_04717           JUNCTION     0.39     1.14   101.44     0  03:20        0.00
  Node_04721           JUNCTION     0.64     1.61   101.96     0  04:13        0.00
  Node_04759           JUNCTION     0.70     1.78   101.96     0  04:14        0.00
  Node_04760           JUNCTION     0.61     2.11   101.57     0  04:15        0.00
  Node_04764           JUNCTION     0.79     1.59   101.51     0  01:42        0.00
  Node_04765           JUNCTION     0.53     1.50   101.92     0  04:05        0.00
  Node_04766           JUNCTION     1.02     2.23   102.00     0  04:13        0.00
  Node_04767           JUNCTION     0.99     2.22   102.05     0  04:04        0.00
  Node_04768           JUNCTION     1.10     2.35   102.01     0  04:02        0.00
  Node_04854           JUNCTION     0.36     1.46   101.90     0  04:15        0.00
  Node_04855           JUNCTION     1.04     2.04   101.97     0  04:14        0.00
  Node_05283           JUNCTION     2.27     3.66   102.28     0  01:24        0.00
  Node_05284           JUNCTION     2.24     3.61   102.27     0  01:24        0.00
  Node_05285           JUNCTION     2.18     3.47   102.22     0  01:24        0.00
  Node_05286           JUNCTION     2.15     3.42   102.22     0  01:24        0.00
  Node_05287           JUNCTION     2.12     3.42   102.27     0  01:24        0.00
  Node_05288           JUNCTION     2.10     3.41   102.28     0  01:24        0.00
  Node_05289           JUNCTION     1.56     2.70   102.22     0  01:24        0.00
  Node_05290           JUNCTION     2.09     3.40   102.29     0  01:24        0.00
  Node_05291           JUNCTION     1.87     3.19   102.39     0  01:25        0.00
  Node_05292           JUNCTION     1.83     3.17   102.42     0  01:25        0.00
  Node_05293           JUNCTION     1.82     3.17   102.42     0  01:25        0.00
  Node_05294           JUNCTION     1.78     3.13   102.44     0  01:25        0.00
  Node_05295           JUNCTION     1.82     3.17   102.44     0  01:25        0.00
  Node_05296           JUNCTION     1.79     3.14   102.46     0  01:25        0.00
  Node_05297           JUNCTION     1.59     2.79   102.30     0  01:24        0.00
  Node_05298           JUNCTION     1.74     3.06   102.45     0  01:25        0.00
  Node_05299           JUNCTION     1.73     3.06   102.47     0  01:25        0.00
  Node_05300           JUNCTION     1.69     3.00   102.45     0  01:25        0.00
  Node_05301           JUNCTION     1.65     2.93   102.42     0  01:25        0.00
  Node_05302           JUNCTION     1.65     2.95   102.45     0  01:25        0.00
  Node_05303           JUNCTION     1.61     2.88   102.43     0  01:25        0.00
[...]
  Link_02385                  4.35      4.35      4.35      0.01         0.22
  Link_02386                  3.59      3.59      3.62      0.01         0.01
  Link_02387                  4.36      4.36      4.45      0.01         0.01
  Link_02388                  4.47      4.47      4.54      0.01         0.01
  Link_02389                  3.73      3.73      4.33      0.01         0.01
  Link_02390                  4.56      4.56      4.59      0.01         0.02
  Link_02391                  4.59      4.59      4.64      0.01         0.01
  Link_02392                  3.73      3.73      3.89      0.01         0.01
  Link_02393                  4.64      4.64      4.64      0.41         0.38
  Link_05459                  3.99      3.99      4.02      0.01         0.01
  Link_05460                  4.35      4.35      4.44      0.01         0.01
  Link_05461                  4.52      4.52      4.52      0.22         0.28
  Link_05462                  4.53      4.53      4.54      1.18         1.08
  Link_05463                  4.51      4.53      4.51      1.66         1.61
  Link_05464                  4.49      4.49      4.49      0.01         1.18
  Link_05496                  4.59      4.60      4.59      3.81         3.79
  Link_05662                  1.60      1.60      1.77      0.01         0.02
  Link_05663                  2.84      2.84      3.53      0.01         0.01
  Link_05664                  4.67      4.67      4.68      0.04         0.05
  Link_05665                  4.66      4.73      4.66      5.01         4.58
  Link_05677                  4.68      4.68      4.68      3.91         3.53
  Link_05678                  3.17      3.17      3.18      0.01         0.01
  Link_05720                  4.57      4.58      4.57      1.54         1.56
  Link_05721                  4.60      4.60      4.60      1.04         1.14
  Link_05722                  3.68      3.68      3.77      0.01         0.01
  Link_05726                  4.58      4.58      4.59      0.01         0.01
  Link_05727                  4.58      4.58      4.58      0.01         0.07
  Link_05728                  4.45      4.45      4.49      0.01         0.01
  Link_05729                  3.94      3.94      3.94      0.37         1.04
  Link_05730                  0.13      0.13      0.29      0.01         0.01
  Link_05731                  0.32      0.33      0.33      0.65         0.25
  Link_05742                  3.62      3.62      3.66      0.01         0.01
  Link_05743                  4.64      4.64      4.64      0.01         0.03
  Link_05744                  4.65      4.65      4.66      0.23         0.23
  Link_05752                  3.37      3.37      3.40      0.86         0.01
  Link_05812                  4.61      4.61      4.65      0.01         0.01
  Link_05813                  4.21      4.21      4.27      0.01         0.01
  Link_05814                  3.81      3.81      3.88      0.03         0.01
  Link_05815                  3.65      3.65      3.71      0.01         0.01
  Link_05983                  2.15      2.15      2.34      0.01         0.01
  Link_05984                  1.21      1.21      1.41      0.01         0.01
  Link_07220                  2.73      2.73      2.77      0.13         0.21
  Link_07221                  2.77      2.77      2.77      1.30         1.44
  Link_07222                  2.77      2.78      2.78      1.51         1.43
  Link_07230                  2.78      2.78      2.81      1.07         1.07
  Link_07231                  2.79      2.81      2.79      1.90         1.72
  Link_07233                  2.94      3.07      2.95      3.13         2.54
  Link_07234                  3.00      3.03      3.00      3.64         2.81
  Link_07235                  3.09      3.09      3.13      0.74         0.70
  Link_07270                  0.79      0.79      1.32      0.01         0.01
  Link_07271                  1.31      1.32      1.88      0.02         0.09
  Link_07274                  0.80      0.80      0.82      0.01         0.03
  Link_07277                  2.14      2.15      2.51      0.06         0.14
  Link_07278                  2.58      2.60      2.63      0.10         0.20
  Link_07295                  2.61      2.63      2.68      0.13         0.14
  Link_07296                  2.68      2.68      2.73      0.55         0.36
  Link_07297                  2.73      2.73      2.73      1.27         1.20
  Link_07303                  2.60      2.60      2.64      0.01         0.06
  Link_07306                  1.39      1.39      2.32      0.01         0.01
  Link_07464                  4.00      4.00      4.10      0.01         0.01
  Link_07578                  3.46      3.46      3.46      0.01         0.01
  Link_07579                  3.68      3.68      3.86      0.01         0.01
  Link_07580                  3.61      3.61      3.68      0.01         0.01
  Link_07687                  4.35      4.35      4.38      0.01         0.01
  Link_08891                  2.44      2.44      3.59      0.01         0.01
  Link_08912                  2.12      2.12      3.45      0.01         0.01
  Link1_to_ChengXi            4.27      4.43      4.27      0.32         0.09
  Link2_to_ChengXi            4.24      4.91      4.24      4.93         4.15
  Link3_to_ChengXi            1.57      3.06      1.61      2.27         0.69
  Link_to_LaoDongLu           0.34      0.34      0.37      0.01         0.01
  
  
  ***************
  Pumping Summary
  ***************
  
  ---------------------------------------------------------------------------------------------------------
                                                  Min       Avg       Max     Total     Power    % Time Off
                        Percent   Number of      Flow      Flow      Flow    Volume     Usage    Pump Curve
  Pump                 Utilized   Start-Ups       CMS       CMS       CMS  10^6 ltr     Kw-hr    Low   High
  ---------------------------------------------------------------------------------------------------------
  Pump_ChengXi1           83.52          36      0.00      0.17      0.17     3.012     23.69    0.0    0.0
  Pump_ChengXi2           68.24          41      0.00      0.17      0.17     2.461     19.38    0.0    0.0
  Pump_ChengXi3           51.57          43      0.00      0.17      0.17     1.860     14.06    0.0    0.0
  Pump_ChengXi4           31.53          18      0.00      0.17      0.17     1.137      7.35    0.0    0.0
  Pump_LaoDongLu1         80.56          10      0.00      0.03      0.03     0.484      5.57    0.0    0.0
  Pump_LaoDongLu2         30.56          13      0.00      0.03      0.03     0.183      1.90    0.0    0.0
  Pump_LaoDongLu3         12.50           7      0.00      0.03      0.03     0.075      0.72    0.0    0.0
  outfallpump             93.17           4      0.00      0.37      0.45     7.512    145.39    0.0    0.0
  
  
  ***************************
  Link Pollutant Load Summary
  ***************************
  
  ----------------------------------
                                 COD
  Link                            kg
  ----------------------------------
  Link_01146                  33.004
  Link_01147                  42.533
  Link_01148                  51.950
  Link_01149                  60.489
  Link_01150                  69.914
  Link_01151                  63.829
  Link_01152                  50.107
  Link_01274                  12.054
  Link_01275                  24.441
  Link_01276                  52.139
  Link_01292                  17.003
  Link_01294                  74.362
  Link_01295                  83.897
  Link_01296                  94.408
  Link_01297                 121.353
  Link_01298                  12.085
  Link_01299                 144.525
  Link_01300                 154.388
  Link_01301                 164.214
  Link_01302                  11.951
  Link_01312                  15.722
  Link_01313                 286.563
  Link_01314                 292.504
  Link_01315                 298.732
  Link_01316                 307.022
  Link_01317                 317.230
  Link_01318                 327.768
  Link_01319                 338.448
  Link_01320                 383.983
  Link_01323                 228.714
  Link_01324                  14.358
  Link_01325                 252.741
  Link_01326                 262.261
  Link_01327                 201.159
  Link_01328                  15.754
  Link_01329                 220.949
  Link_01330                 225.235
  Link_01331                 229.974
  Link_01332                 176.884
  Link_01333                  13.706
  Link_01334                 199.645
  Link_01335                  16.288
  Link_01336                 225.082
  Link_01337                 142.961
  Link_01338                  14.567
  Link_01339                 122.786
  Link_01340                  12.110
  Link_01341                 115.350
  Link_01342                  13.661
  Link_01343                 125.617
  Link_01344                  23.643
  Link_01345                 139.436
  Link_01346                 145.937
  Link_01347                  24.218
  Link_01348                 144.271
  Link_01349                  22.697
  Link_01350                 150.360
  Link_01351                  14.777
  Link_01352                 162.522
  Link_01556                  13.906
  Link_01557                  25.445
  Link_01558                1762.344
  Link_01559                  35.952
  Link_01560                1752.273
  Link_01561                1807.236
  Link_01562                1818.782
  Link_01563                1829.108
  Link_01564                  10.269
  Link_01565                 128.809
  Link_01566                  11.144
  Link_01567                  13.803
  Link_01568                 146.905
  Link_01569                  21.246
  Link_01570                 163.348
  Link_01571                 151.791
  Link_01572                 205.100
  Link_01573                 118.103
  Link_01574                 107.507
  Link_01575                  15.440
  Link_01576                  82.384
  Link_01577                  57.720
  Link_01578                  45.553
  Link_01579                  14.417
  Link_01580                   6.580
  Link_01581                   9.654
  Link_01582                   6.577
  Link_01731                  25.571
  Link_01732                  39.980
  Link_01733                  53.108
  Link_01734                  14.018
  Link_01735                  19.525
  Link_01751                 105.866
  Link_01752                 113.689
  Link_01753                 133.280
  Link_01754                 141.678
  Link_01755                 150.720
  Link_01756                  11.925
  Link_01757                 187.622
  Link_01758                  13.107
  Link_01759                  13.133
  Link_01760                 209.559
  Link_01761                 215.510
  Link_01762                 222.128
  Link_01763                  13.710
  Link_01764                 236.944
  Link_01765                 244.015
  Link_01766                 244.053
  Link_01767                 459.765
  Link_01768                 461.886
  Link_01769                 465.017
  Link_01770                 467.542
  Link_01771                 470.270
  Link_01772                  40.059
  Link_01773                 488.072
  Link_01774                  36.375
  Link_01775                 229.331
  Link_01776                 214.575
  Link_01777                 198.374
  Link_01778                 348.184
  Link_01779                 155.349
  Link_01780                 352.598
  Link_01781                  64.461
  Link_01782                 517.523
  Link_01783                  13.475
  Link_01784                 526.479
  Link_01785                 531.787
  Link_01786                  63.375
  Link_01787                  35.030
  Link_01788                 601.013
  Link_01789                 606.316
  Link_01790                  19.708
  Link_01791                  23.634
  Link_01792                  18.955
  Link_01793                 630.954
  Link_01794                 635.275
  Link_01795                 639.515
  Link_01796                 643.891
  Link_01797                 647.257
  Link_01798                1104.992
  Link_01799                1097.054
  Link_01800                1113.581
  Link_01801                 664.132
  Link_01802                1048.313
  Link_01803                1088.160
  Link_01804                 931.152
  Link_01805                 921.428
  Link_01806                 912.027
  Link_01807                 901.584
  Link_01808                  17.369
  Link_01809                 877.948
  Link_01810                 859.528
  Link_01811                  10.182
  Link_01812                  54.811
  Link_01813                  45.837
  Link_01814                 823.542
  Link_01815                 815.430
  Link_01816                 800.381
  Link_01817                  12.159
  Link_01818                 774.166
  Link_01819                 751.407
  Link_01820                  19.707
  Link_01821                  28.429
  Link_01822                   6.556
  Link_01823                 221.650
  Link_01824                 218.172
  Link_01825                  59.108
  Link_01826                  62.285
  Link_01827                   3.034
  Link_01828                  68.546
  Link_01829                   6.538
  Link_01830                  78.364
  Link_01831                   3.034
  Link_01832                  84.642
  Link_01833                  87.826
  Link_01834                  94.196
  Link_01835                   3.034
  Link_01836                  47.506
  Link_01837                  20.903
  Link_01838                  33.811
  Link_01839                  44.232
  Link_01840                  41.160
  Link_01841                  38.086
  Link_01842                  30.209
  Link_01843                  23.973
  Link_01844                  20.895
  Link_02074                  13.931
  Link_02075                 179.159
  Link_02076                 195.887
  Link_02077                  24.985
  Link_02078                 223.813
  Link_02079                  15.667
  Link_02080                 247.467
  Link_02081                 256.524
  Link_02082                 265.604
  Link_02083                  15.672
  Link_02084                  14.529
  Link_02085                 536.488
  Link_02086                 532.100
  Link_02087                 531.953
  Link_02088                 531.551
  Link_02089                 530.391
  Link_02090                 557.647
  Link_02091                 549.771
  Link_02092                 542.046
  Link_02093                  13.501
  Link_02094                 514.246
  Link_02095                 506.023
  Link_02096                 490.640
  Link_02097                  20.743
  Link_02098                  48.672
  Link_02099                 481.476
  Link_02100                 471.339
  Link_02101                  31.209
  Link_02102                 447.325
  Link_02103                 417.253
  Link_02104                  31.552
  Link_02105                 322.001
  Link_02106                  18.328
  Link_02107                  10.890
  Link_02108                 298.966
  Link_02109                 286.468
  Link_02110                 323.240
  Link_02111                 212.087
  Link_02112                  19.146
  Link_02113                 154.853
  Link_02114                  45.906
  Link_02115                  42.725
  Link_02116                  39.614
  Link_02117                  36.561
  Link_02118                  33.475
  Link_02123                   6.578
  Link_02124                   9.642
  Link_02125                  12.712
  Link_02126                  15.713
  Link_02127                  30.371
  Link_02128                  27.283
  Link_02129                  24.234
  Link_02130                  21.183
  Link_02131                  18.090
  Link_02132                  14.995
  Link_02133                  11.904
  Link_02134                 158.070
  Link_02135                 161.286
  Link_02136                 171.075
  Link_02137                   6.573
  Link_02138                 196.894
  Link_02139                 193.678
  Link_02140                 190.392
  Link_02141                 187.290
  Link_02142                 183.946
  Link_02143                 174.264
  Link_02383                  10.688
  Link_02384                  17.675
  Link_02385                  27.219
  Link_02386                  28.079
  Link_02387                  65.372
  Link_02388                  74.081
  Link_02389                  26.996
  Link_02390                  83.026
  Link_02391                 118.588
  Link_02392                  40.187
  Link_02393                 166.343
  Link_05459                  97.368
  Link_05460                 204.054
  Link_05461                 241.360
  Link_05462                 509.947
  Link_05463                 626.780
  Link_05464                  37.294
  Link_05496                1739.028
  Link_05662                  63.276
  Link_05663                  12.412
  Link_05664                  52.096
  Link_05665                 394.373
  Link_05677                 264.137
  Link_05678                  19.219
  Link_05720                1038.083
  Link_05721                 848.814
  Link_05722                  19.141
  Link_05723                 105.721
  Link_05725                  18.829
  Link_05726                 536.581
  Link_05727                  11.779
  Link_05728                 522.268
  Link_05729                 458.276
  Link_05730                 319.257
  Link_05731                 215.139
  Link_05732                 208.945
  Link_05742                  28.222
  Link_05743                 153.974
  Link_05744                 275.071
  Link_05752                 184.866
  Link_05753                   4.811
  Link_05754                  27.073
  Link_05791                   6.551
  Link_05812                 230.397
  Link_05813                 133.177
  Link_05814                 121.872
  Link_05815                 154.916
  Link_05816                  22.379
  Link_05817                  32.108
  Link_05818                  11.878
  Link_05983                  33.324
  Link_05984                  22.927
  Link_06039                   3.030
  Link_07220                 209.251
  Link_07221                 219.929
  Link_07222                 215.320
  Link_07230                 225.000
  Link_07231                 234.962
  Link_07233                 418.159
  Link_07234                 428.446
  Link_07235                 175.366
  Link_07270                  48.932
  Link_07271                  89.784
  Link_07274                  25.137
  Link_07277                 134.049
  Link_07278                 166.314
  Link_07295                 149.885
  Link_07296                 167.771
  Link_07297                 198.854
  Link_07303                  14.324
  Link_07306                  52.025
  Link_07321                  11.911
  Link_07464                  24.901
  Link_07578                  27.797
  Link_07579                 404.968
  Link_07580                 364.528
  Link_07687                  22.530
  Link_07865                  11.877
  Link_08891                  15.717
  Link_08912                  37.780
  Link1_to_ChengXi          1840.007
  Link2_to_ChengXi           406.655
  Link3_to_ChengXi           438.459
  Link_to_LaoDongLu          326.273
  Pump_ChengXi1              979.290
  Pump_ChengXi2              787.340
  Pump_ChengXi3              563.156
  Pump_ChengXi4              325.891
  Pump_LaoDongLu1            180.752
  Pump_LaoDongLu2             65.385
  Pump_LaoDongLu3             29.000
  outfallpump               2332.269
  

  Analysis begun on:  Sun Sep  5 09:41:54 2021
  Analysis ended on:  Sun Sep  5 09:41:56 2021
  Total elapsed time: 00:00:02