
  EPA STORM WATER MANAGEMENT MODEL - VERSION 5.1 (Build 5.3.0.dev0)
  --------------------------------------------------------------

  WARNING 04: minimum elevation drop used for Conduit Link_01776
  WARNING 04: minimum elevation drop used for Conduit Link_01779
  WARNING 04: minimum elevation drop used for Conduit Link_07234
  WARNING 02: maximum depth increased for Node Node_06087
  
  *********************************************************
  NOTE: The summary statistics displayed in this report are
  based on results found at every computational time step,  
  not just on results from each reporting time step.
  *********************************************************
  
  ****************
  Analysis Options
  ****************
  Flow Units ............... CMS
  Process Models:
    Rainfall/Runoff ........ YES
    RDII ................... NO
    Snowmelt ............... NO
    Groundwater ............ NO
    Flow Routing ........... YES
    Ponding Allowed ........ YES
    Water Quality .......... YES
  Infiltration Method ...... HORTON
  Flow Routing Method ...... DYNWAVE
  Surcharge Method ......... EXTRAN
  Starting Date ............ 01/02/2011 00:00:00
  Ending Date .............. 01/02/2011 06:00:00
  Antecedent Dry Days ...... 0.0
  Report Time Step ......... 00:15:00
  Wet Time Step ............ 00:05:00
  Dry Time Step ............ 01:00:00
  Routing Time Step ........ 60.00 sec
  Variable Time Step ....... YES
  Maximum Trials ........... 8
  Number of Threads ........ 4
  Head Tolerance ........... 0.001500 m
  
  
  **************************        Volume         Depth
  Runoff Quantity Continuity     hectare-m            mm
  **************************     ---------       -------
  Total Precipitation ......         1.645        57.500
  Evaporation Loss .........         0.000         0.000
  Infiltration Loss ........         0.050         1.751
  Surface Runoff ...........         1.596        55.819
  Final Storage ............         0.000         0.009
  Continuity Error (%) .....        -0.138
  
  
  **************************           COD
  Runoff Quality Continuity             kg
  **************************    ----------
  Initial Buildup ..........         0.000
  Surface Buildup ..........         0.000
  Wet Deposition ...........      4325.060
  Sweeping Removal .........         0.000
  Infiltration Loss ........       131.727
  BMP Removal ..............         0.000
  Surface Runoff ...........      4198.608
  Remaining Buildup ........         0.706
  Continuity Error (%) .....        -0.138
  
  
  **************************        Volume        Volume
  Flow Routing Continuity        hectare-m      10^6 ltr
  **************************     ---------     ---------
  Dry Weather Inflow .......         0.153         1.529
  Wet Weather Inflow .......         1.596        15.964
  Groundwater Inflow .......         0.000         0.000
  RDII Inflow ..............         0.000         0.000
  External Inflow ..........         0.000         0.000
  External Outflow .........         0.711         7.113
  Flooding Loss ............         1.008        10.080
  Evaporation Loss .........         0.000         0.000
  Exfiltration Loss ........         0.000         0.000
  Initial Stored Volume ....         0.077         0.773
  Final Stored Volume ......         0.295         2.951
  Continuity Error (%) .....       -10.279
  
  
  **************************           COD
  Quality Routing Continuity            kg
  **************************    ----------
  Dry Weather Inflow .......       845.606
  Wet Weather Inflow .......      4198.592
  Groundwater Inflow .......         0.000
  RDII Inflow ..............         0.000
  External Inflow ..........         0.000
  External Outflow .........      2202.227
  Flooding Loss ............      2665.251
  Exfiltration Loss ........         0.000
  Mass Reacted .............         0.000
  Initial Stored Mass ......       427.257
  Final Stored Mass ........       671.792
  Continuity Error (%) .....        -1.239
  
  
  *************************
  Highest Continuity Errors
  *************************
  Node Node_04713 (-52.88%)
  Node Node_04456 (-47.83%)
  Node Node_04714 (-28.69%)
  Node Node_04454 (-28.63%)
  Node Node_07272 (-26.36%)
  
  
  ***************************
  Time-Step Critical Elements
  ***************************
  Link Link_01778 (37.41%)
  Link Link_01292 (22.20%)
  Link Link_02129 (14.47%)
  Link Link_06039 (11.76%)
  Link Link_07221 (1.67%)
  
  
  ********************************
  Highest Flow Instability Indexes
  ********************************
  Link Link_01778 (75)
  Link Link_01781 (69)
  Link Link_01780 (68)
  Link Link_01787 (68)
  Link Link_01777 (67)
  
  
  *************************
  Routing Time Step Summary
  *************************
  Minimum Time Step           :     5.00 sec
  Average Time Step           :     5.00 sec
  Maximum Time Step           :     5.00 sec
  Percent in Steady State     :     0.00
  Average Iterations per Step :     6.70
  Percent Not Converging      :    69.05
  
  
  ***************************
  Subcatchment Runoff Summary
  ***************************
  
  ------------------------------------------------------------------------------------------------------------------------------
                            Total      Total      Total      Total     Imperv       Perv      Total       Total     Peak  Runoff
                           Precip      Runon       Evap      Infil     Runoff     Runoff     Runoff      Runoff   Runoff   Coeff
  Subcatchment                 mm         mm         mm         mm         mm         mm         mm    10^6 ltr      CMS
  ------------------------------------------------------------------------------------------------------------------------------
  2707                      57.50       0.00       0.00       1.76      14.38      41.44      55.82        0.06     0.01   0.971
  2708                      57.50       0.00       0.00       1.76      14.38      41.44      55.82        0.06     0.01   0.971
  2709                      57.50       0.00       0.00       1.76      14.38      41.44      55.82        0.06     0.01   0.971
  2710                      57.50       0.00       0.00       1.76      14.38      41.44      55.82        0.06     0.01   0.971
  2712                      57.50       0.00       0.00       1.76      14.38      41.44      55.82        0.06     0.01   0.971
  2713                      57.50       0.00       0.00       1.76      14.38      41.44      55.82        0.06     0.01   0.971
  2714                      57.50       0.00       0.00       1.76      14.38      41.44      55.82        0.06     0.01   0.971
  2715                      57.50       0.00       0.00       1.76      14.38      41.44      55.82        0.06     0.01   0.971
  2716                      57.50       0.00       0.00       1.76      14.38      41.44      55.82        0.06     0.01   0.971
  2717                      57.50       0.00       0.00       1.76      14.38      41.44      55.82        0.06     0.01   0.971
  2718                      57.50       0.00       0.00       1.76      14.38      41.44      55.82        0.06     0.01   0.971
  2719                      57.50       0.00       0.00       1.76      14.38      41.44      55.82        0.06     0.01   0.971
  2721                      57.50       0.00       0.00       1.76      14.38      41.44      55.82        0.06     0.01   0.971
  2722                      57.50       0.00       0.00       1.76      14.38      41.44      55.82        0.06     0.01   0.971
  2723                      57.50       0.00       0.00       1.76      14.38      41.44      55.82        0.06     0.01   0.971
  2724                      57.50       0.00       0.00       1.76      14.38      41.44      55.82        0.06     0.01   0.971
  2725                      57.50       0.00       0.00       1.76      14.38      41.44      55.82        0.06     0.01   0.971
  2726                      57.50       0.00       0.00       1.76      14.38      41.44      55.82        0.06     0.01   0.971
  2727                      57.50       0.00       0.00       1.76      14.38      41.44      55.82        0.06     0.01   0.971
  2728                      57.50       0.00       0.00       1.76      14.38      41.44      55.82        0.06     0.01   0.971
  2729                      57.50       0.00       0.00       1.76      14.38      41.44      55.82        0.06     0.01   0.971
  2730                      57.50       0.00       0.00       1.76      14.38      41.44      55.82        0.06     0.01   0.971
  2731                      57.50       0.00       0.00       1.76      14.38      41.44      55.82        0.06     0.01   0.971
  2732                      57.50       0.00       0.00       1.76      14.38      41.44      55.82        0.06     0.01   0.971
  2733                      57.50       0.00       0.00       1.76      14.38      41.44      55.82        0.06     0.01   0.971
  2734                      57.50       0.00       0.00       1.76      14.38      41.44      55.82        0.06     0.01   0.971
  2735                      57.50       0.00       0.00       1.76      14.38      41.44      55.82        0.06     0.01   0.971
  2736                      57.50       0.00       0.00       1.76      14.38      41.44      55.82        0.06     0.01   0.971
  2737                      57.50       0.00       0.00       1.76      14.38      41.44      55.82        0.06     0.01   0.971
  2738                      57.50       0.00       0.00       1.76      14.38      41.44      55.82        0.06     0.01   0.971
  2739                      57.50       0.00       0.00       1.76      14.38      41.44      55.82        0.06     0.01   0.971
  2740                      57.50       0.00       0.00       1.76      14.38      41.44      55.82        0.06     0.01   0.971
  2741                      57.50       0.00       0.00       1.76      14.38      41.44      55.82        0.06     0.01   0.971
  2742                      57.50       0.00       0.00       1.76      14.38      41.44      55.82        0.06     0.01   0.971
  2743                      57.50       0.00       0.00       1.76      14.38      41.44      55.82        0.06     0.01   0.971
  2744                      57.50       0.00       0.00       1.76      14.38      41.44      55.82        0.06     0.01   0.971
  2745                      57.50       0.00       0.00       1.76      14.38      41.44      55.82        0.06     0.01   0.971
  2746                      57.50       0.00       0.00       1.76      14.38      41.44      55.82        0.06     0.01   0.971
  2747                      57.50       0.00       0.00       1.76      14.38      41.44      55.82        0.06     0.01   0.971
  2748                      57.50       0.00       0.00       1.76      14.38      41.44      55.82        0.06     0.01   0.971
  2749                      57.50       0.00       0.00       1.76      14.38      41.44      55.82        0.06     0.01   0.971
  2750                      57.50       0.00       0.00       1.76      14.38      41.44      55.82        0.06     0.01   0.971
  2751                      57.50       0.00       0.00       1.76      14.38      41.44      55.82        0.06     0.01   0.971
  2752                      57.50       0.00       0.00       1.76      14.38      41.44      55.82        0.06     0.01   0.971
  2753                      57.50       0.00       0.00       1.76      14.38      41.44      55.82        0.06     0.01   0.971
  2754                      57.50       0.00       0.00       1.76      14.38      41.44      55.82        0.06     0.01   0.971
  2755                      57.50       0.00       0.00       1.76      14.38      41.44      55.82        0.06     0.01   0.971
  2756                      57.50       0.00       0.00       1.76      14.38      41.44      55.82        0.06     0.01   0.971
  2964                      57.50       0.00       0.00       1.76      14.38      41.44      55.82        0.06     0.01   0.971
  2969                      57.50       0.00       0.00       1.76      14.38      41.44      55.82        0.06     0.01   0.971
  2970                      57.50       0.00       0.00       1.76      14.38      41.44      55.82        0.06     0.01   0.971
  2974                      57.50       0.00       0.00       1.76      14.38      41.44      55.82        0.06     0.01   0.971
  2975                      57.50       0.00       0.00       1.76      14.38      41.44      55.82        0.06     0.01   0.971
  2976                      57.50       0.00       0.00       1.76      14.38      41.44      55.82        0.06     0.01   0.971
  2977                      57.50       0.00       0.00       1.76      14.38      41.44      55.82        0.06     0.01   0.971
  2978                      57.50       0.00       0.00       1.76      14.38      41.44      55.82        0.06     0.01   0.971
  2979                      57.50       0.00       0.00       1.76      14.38      41.44      55.82        0.06     0.01   0.971
  2980                      57.50       0.00       0.00       1.76      14.38      41.44      55.82        0.06     0.01   0.971
  2981                      57.50       0.00       0.00       1.76      14.38      41.44      55.82        0.06     0.01   0.971
  2982                      57.50       0.00       0.00       1.76      14.38      41.44      55.82        0.06     0.01   0.971
  2984                      57.50       0.00       0.00       1.76      14.38      41.44      55.82        0.06     0.01   0.971
  2985                      57.50       0.00       0.00       1.76      14.38      41.44      55.82        0.06     0.01   0.971
  3925                      57.50       0.00       0.00       1.76      14.38      41.44      55.82        0.06     0.01   0.971
  3926                      57.50       0.00       0.00       1.76      14.38      41.44      55.82        0.06     0.01   0.971
  3927                      57.50       0.00       0.00       1.76      14.38      41.44      55.82        0.06     0.01   0.971
  3928                      57.50       0.00       0.00       1.76      14.38      41.44      55.82        0.06     0.01   0.971
  3929                      57.50       0.00       0.00       1.76      14.38      41.44      55.82        0.06     0.01   0.971
  3930                      57.50       0.00       0.00       1.76      14.38      41.44      55.82        0.06     0.01   0.971
  3931                      57.50       0.00       0.00       1.76      14.38      41.44      55.82        0.06     0.01   0.971
  3932                      57.50       0.00       0.00       1.76      14.38      41.44      55.82        0.06     0.01   0.971
  3933                      57.50       0.00       0.00       1.76      14.38      41.44      55.82        0.06     0.01   0.971
  3934                      57.50       0.00       0.00       1.76      14.38      41.44      55.82        0.06     0.01   0.971
  3935                      57.50       0.00       0.00       1.76      14.38      41.44      55.82        0.06     0.01   0.971
  3936                      57.50       0.00       0.00       1.76      14.38      41.44      55.82        0.06     0.01   0.971
  3937                      57.50       0.00       0.00       1.76      14.38      41.44      55.82        0.06     0.01   0.971
  3938                      57.50       0.00       0.00       1.76      14.38      41.44      55.82        0.06     0.01   0.971
  3939                      57.50       0.00       0.00       1.76      14.38      41.44      55.82        0.06     0.01   0.971
  3940                      57.50       0.00       0.00       1.76      14.38      41.44      55.82        0.06     0.01   0.971
  3941                      57.50       0.00       0.00       1.76      14.38      41.44      55.82        0.06     0.01   0.971
  3942                      57.50       0.00       0.00       1.76      14.38      41.44      55.82        0.06     0.01   0.971
  3943                      57.50       0.00       0.00       1.76      14.38      41.44      55.82        0.06     0.01   0.971
  3944                      57.50       0.00       0.00       1.76      14.38      41.44      55.82        0.06     0.01   0.971
  3945                      57.50       0.00       0.00       1.76      14.38      41.44      55.82        0.06     0.01   0.971
  3946                      57.50       0.00       0.00       1.76      14.38      41.44      55.82        0.06     0.01   0.971
  3947                      57.50       0.00       0.00       1.76      14.38      41.44      55.82        0.06     0.01   0.971
  3948                      57.50       0.00       0.00       1.76      14.38      41.44      55.82        0.06     0.01   0.971
  3949                      57.50       0.00       0.00       1.76      14.38      41.44      55.82        0.06     0.01   0.971
  3950                      57.50       0.00       0.00       1.76      14.38      41.44      55.82        0.06     0.01   0.971
  3951                      57.50       0.00       0.00       1.76      14.38      41.44      55.82        0.06     0.01   0.971
  3952                      57.50       0.00       0.00       1.76      14.38      41.44      55.82        0.06     0.01   0.971
  3953                      57.50       0.00       0.00       1.76      14.38      41.44      55.82        0.06     0.01   0.971
  3954                      57.50       0.00       0.00       1.76      14.38      41.44      55.82        0.06     0.01   0.971
  3955                      57.50       0.00       0.00       1.76      14.38      41.44      55.82        0.06     0.01   0.971
  3956                      57.50       0.00       0.00       1.76      14.38      41.44      55.82        0.06     0.01   0.971
  4032                      57.50       0.00       0.00       1.76      14.38      41.44      55.82        0.06     0.01   0.971
  4033                      57.50       0.00       0.00       1.76      14.38      41.44      55.82        0.06     0.01   0.971
  4041                      57.50       0.00       0.00       1.76      14.38      41.44      55.82        0.06     0.01   0.971
  4051                      57.50       0.00       0.00       1.76      14.38      41.44      55.82        0.06     0.01   0.971
  4055                      57.50       0.00       0.00       1.76      14.38      41.44      55.82        0.06     0.01   0.971
  4056                      57.50       0.00       0.00       1.76      14.38      41.44      55.82        0.06     0.01   0.971
  4058                      57.50       0.00       0.00       1.76      14.38      41.44      55.82        0.06     0.01   0.971
  4385                      57.50       0.00       0.00       1.76      14.38      41.44      55.82        0.06     0.01   0.971
  4386                      57.50       0.00       0.00       1.76      14.38      41.44      55.82        0.06     0.01   0.971
  4387                      57.50       0.00       0.00       1.76      14.38      41.44      55.82        0.06     0.01   0.971
  4388                      57.50       0.00       0.00       1.76      14.38      41.44      55.82        0.06     0.01   0.971
  4389                      57.50       0.00       0.00       1.76      14.38      41.44      55.82        0.06     0.01   0.971
  4390                      57.50       0.00       0.00       1.76      14.38      41.44      55.82        0.06     0.01   0.971
  4391                      57.50       0.00       0.00       1.76      14.38      41.44      55.82        0.06     0.01   0.971
  4392                      57.50       0.00       0.00       1.76      14.38      41.44      55.82        0.06     0.01   0.971
  4393                      57.50       0.00       0.00       1.76      14.38      41.44      55.82        0.06     0.01   0.971
  4394                      57.50       0.00       0.00       1.76      14.38      41.44      55.82        0.06     0.01   0.971
  4395                      57.50       0.00       0.00       1.76      14.38      41.44      55.82        0.06     0.01   0.971
  4396                      57.50       0.00       0.00       1.76      14.38      41.44      55.82        0.06     0.01   0.971
  4397                      57.50       0.00       0.00       1.76      14.38      41.44      55.82        0.06     0.01   0.971
  4398                      57.50       0.00       0.00       1.76      14.38      41.44      55.82        0.06     0.01   0.971
  4429                      57.50       0.00       0.00       1.76      14.38      41.44      55.82        0.06     0.01   0.971
  4430                      57.50       0.00       0.00       1.76      14.38      41.44      55.82        0.06     0.01   0.971
  4431                      57.50       0.00       0.00       1.76      14.38      41.44      55.82        0.06     0.01   0.971
  4432                      57.50       0.00       0.00       1.76      14.38      41.44      55.82        0.06     0.01   0.971
  4433                      57.50       0.00       0.00       1.76      14.38      41.44      55.82        0.06     0.01   0.971
  4434                      57.50       0.00       0.00       1.76      14.38      41.44      55.82        0.06     0.01   0.971
  4435                      57.50       0.00       0.00       1.76      14.38      41.44      55.82        0.06     0.01   0.971
  4436                      57.50       0.00       0.00       1.76      14.38      41.44      55.82        0.06     0.01   0.971
  4437                      57.50       0.00       0.00       1.76      14.38      41.44      55.82        0.06     0.01   0.971
  4438                      57.50       0.00       0.00       1.76      14.38      41.44      55.82        0.06     0.01   0.971
  4439                      57.50       0.00       0.00       1.76      14.38      41.44      55.82        0.06     0.01   0.971
  4440                      57.50       0.00       0.00       1.76      14.38      41.44      55.82        0.06     0.01   0.971
  4441                      57.50       0.00       0.00       1.76      14.38      41.44      55.82        0.06     0.01   0.971
  4442                      57.50       0.00       0.00       1.76      14.38      41.44      55.82        0.06     0.01   0.971
  4443                      57.50       0.00       0.00       1.76      14.38      41.44      55.82        0.06     0.01   0.971
  4444                      57.50       0.00       0.00       1.76      14.38      41.44      55.82        0.06     0.01   0.971
  4445                      57.50       0.00       0.00       1.76      14.38      41.44      55.82        0.06     0.01   0.971
  4446                      57.50       0.00       0.00       1.76      14.38      41.44      55.82        0.06     0.01   0.971
  4447                      57.50       0.00       0.00       1.76      14.38      41.44      55.82        0.06     0.01   0.971
  4448                      57.50       0.00       0.00       1.76      14.38      41.44      55.82        0.06     0.01   0.971
  4449                      57.50       0.00       0.00       1.76      14.38      41.44      55.82        0.06     0.01   0.971
  4450                      57.50       0.00       0.00       1.76      14.38      41.44      55.82        0.06     0.01   0.971
  4451                      57.50       0.00       0.00       1.76      14.38      41.44      55.82        0.06     0.01   0.971
  4452                      57.50       0.00       0.00       1.76      14.38      41.44      55.82        0.06     0.01   0.971
  4453                      57.50       0.00       0.00       1.76      14.38      41.44      55.82        0.06     0.01   0.971
  4454                      57.50       0.00       0.00       1.76      14.38      41.44      55.82        0.06     0.01   0.971
  4462                      57.50       0.00       0.00       1.76      14.38      41.44      55.82        0.06     0.01   0.971
  4463                      57.50       0.00       0.00       1.76      14.38      41.44      55.82        0.06     0.01   0.971
  4563                      57.50       0.00       0.00       1.76      14.38      41.44      55.82        0.06     0.01   0.971
  4564                      57.50       0.00       0.00       1.76      14.38      41.44      55.82        0.06     0.01   0.971
  4565                      57.50       0.00       0.00       1.76      14.38      41.44      55.82        0.06     0.01   0.971
  4566                      57.50       0.00       0.00       1.76      14.38      41.44      55.82        0.06     0.01   0.971
  4567                      57.50       0.00       0.00       1.76      14.38      41.44      55.82        0.06     0.01   0.971
  4568                      57.50       0.00       0.00       1.76      14.38      41.44      55.82        0.06     0.01   0.971
  4569                      57.50       0.00       0.00       1.76      14.38      41.44      55.82        0.06     0.01   0.971
  4570                      57.50       0.00       0.00       1.76      14.38      41.44      55.82        0.06     0.01   0.971
  4571                      57.50       0.00       0.00       1.76      14.38      41.44      55.82        0.06     0.01   0.971
  4572                      57.50       0.00       0.00       1.76      14.38      41.44      55.82        0.06     0.01   0.971
  4573                      57.50       0.00       0.00       1.76      14.38      41.44      55.82        0.06     0.01   0.971
  4574                      57.50       0.00       0.00       1.76      14.38      41.44      55.82        0.06     0.01   0.971
  4575                      57.50       0.00       0.00       1.76      14.38      41.44      55.82        0.06     0.01   0.971
  4576                      57.50       0.00       0.00       1.76      14.38      41.44      55.82        0.06     0.01   0.971
  4577                      57.50       0.00       0.00       1.76      14.38      41.44      55.82        0.06     0.01   0.971
  4578                      57.50       0.00       0.00       1.76      14.38      41.44      55.82        0.06     0.01   0.971
  4579                      57.50       0.00       0.00       1.76      14.38      41.44      55.82        0.06     0.01   0.971
  4580                      57.50       0.00       0.00       1.76      14.38      41.44      55.82        0.06     0.01   0.971
  4581                      57.50       0.00       0.00       1.76      14.38      41.44      55.82        0.06     0.01   0.971
  4624                      57.50       0.00       0.00       1.76      14.38      41.44      55.82        0.06     0.01   0.971
  4625                      57.50       0.00       0.00       1.76      14.38      41.44      55.82        0.06     0.01   0.971
  4644                      57.50       0.00       0.00       1.76      14.38      41.44      55.82        0.06     0.01   0.971
  4645                      57.50       0.00       0.00       1.76      14.38      41.44      55.82        0.06     0.01   0.971
  4646                      57.50       0.00       0.00       1.76      14.38      41.44      55.82        0.06     0.01   0.971
  4679                      57.50       0.00       0.00       1.76      14.38      41.44      55.82        0.06     0.01   0.971
  4680                      57.50       0.00       0.00       1.76      14.38      41.44      55.82        0.06     0.01   0.971
  4681                      57.50       0.00       0.00       1.76      14.38      41.44      55.82        0.06     0.01   0.971
  4682                      57.50       0.00       0.00       1.76      14.38      41.44      55.82        0.06     0.01   0.971
  4683                      57.50       0.00       0.00       1.76      14.38      41.44      55.82        0.06     0.01   0.971
  4711                      57.50       0.00       0.00       1.76      14.38      41.44      55.82        0.06     0.01   0.971
  4712                      57.50       0.00       0.00       1.76      14.38      41.44      55.82        0.06     0.01   0.971
  4713                      57.50       0.00       0.00       1.76      14.38      41.44      55.82        0.06     0.01   0.971
  4714                      57.50       0.00       0.00       1.76      14.38      41.44      55.82        0.06     0.01   0.971
  4715                      57.50       0.00       0.00       1.76      14.38      41.44      55.82        0.06     0.01   0.971
  4716                      57.50       0.00       0.00       1.76      14.38      41.44      55.82        0.06     0.01   0.971
  4717                      57.50       0.00       0.00       1.76      14.38      41.44      55.82        0.06     0.01   0.971
  4718                      57.50       0.00       0.00       1.76      14.38      41.44      55.82        0.06     0.01   0.971
  4722                      57.50       0.00       0.00       1.76      14.38      41.44      55.82        0.06     0.01   0.971
  4760                      57.50       0.00       0.00       1.76      14.38      41.44      55.82        0.06     0.01   0.971
  4761                      57.50       0.00       0.00       1.76      14.38      41.44      55.82        0.06     0.01   0.971
  4765                      57.50       0.00       0.00       1.76      14.38      41.44      55.82        0.06     0.01   0.971
  4766                      57.50       0.00       0.00       1.76      14.38      41.44      55.82        0.06     0.01   0.971
  4767                      57.50       0.00       0.00       1.76      14.38      41.44      55.82        0.06     0.01   0.971
  4768                      57.50       0.00       0.00       1.76      14.38      41.44      55.82        0.06     0.01   0.971
  4769                      57.50       0.00       0.00       1.76      14.38      41.44      55.82        0.06     0.01   0.971
  4855                      57.50       0.00       0.00       1.76      14.38      41.44      55.82        0.06     0.01   0.971
  4856                      57.50       0.00       0.00       1.76      14.38      41.44      55.82        0.06     0.01   0.971
  5284                      57.50       0.00       0.00       1.76      14.38      41.44      55.82        0.06     0.01   0.971
  5285                      57.50       0.00       0.00       1.76      14.38      41.44      55.82        0.06     0.01   0.971
  5286                      57.50       0.00       0.00       1.76      14.38      41.44      55.82        0.06     0.01   0.971
  5287                      57.50       0.00       0.00       1.76      14.38      41.44      55.82        0.06     0.01   0.971
  5288                      57.50       0.00       0.00       1.76      14.38      41.44      55.82        0.06     0.01   0.971
  5289                      57.50       0.00       0.00       1.76      14.38      41.44      55.82        0.06     0.01   0.971
  5290                      57.50       0.00       0.00       1.76      14.38      41.44      55.82        0.06     0.01   0.971
  5291                      57.50       0.00       0.00       1.76      14.38      41.44      55.82        0.06     0.01   0.971
  5292                      57.50       0.00       0.00       1.76      14.38      41.44      55.82        0.06     0.01   0.971
  5293                      57.50       0.00       0.00       1.76      14.38      41.44      55.82        0.06     0.01   0.971
  5294                      57.50       0.00       0.00       1.76      14.38      41.44      55.82        0.06     0.01   0.971
  5295                      57.50       0.00       0.00       1.76      14.38      41.44      55.82        0.06     0.01   0.971
  5296                      57.50       0.00       0.00       1.76      14.38      41.44      55.82        0.06     0.01   0.971
  5297                      57.50       0.00       0.00       1.76      14.38      41.44      55.82        0.06     0.01   0.971
  5298                      57.50       0.00       0.00       1.76      14.38      41.44      55.82        0.06     0.01   0.971
  5299                      57.50       0.00       0.00       1.76      14.38      41.44      55.82        0.06     0.01   0.971
  5300                      57.50       0.00       0.00       1.76      14.38      41.44      55.82        0.06     0.01   0.971
  5301                      57.50       0.00       0.00       1.76      14.38      41.44      55.82        0.06     0.01   0.971
  5302                      57.50       0.00       0.00       1.76      14.38      41.44      55.82        0.06     0.01   0.971
  5303                      57.50       0.00       0.00       1.76      14.38      41.44      55.82        0.06     0.01   0.971
  5304                      57.50       0.00       0.00       1.76      14.38      41.44      55.82        0.06     0.01   0.971
  5305                      57.50       0.00       0.00       1.76      14.38      41.44      55.82        0.06     0.01   0.971
  5306                      57.50       0.00       0.00       1.76      14.38      41.44      55.82        0.06     0.01   0.971
  5307                      57.50       0.00       0.00       1.76      14.38      41.44      55.82        0.06     0.01   0.971
  5308                      57.50       0.00       0.00       1.76      14.38      41.44      55.82        0.06     0.01   0.971
  5309                      57.50       0.00       0.00       1.76      14.38      41.44      55.82        0.06     0.01   0.971
  5310                      57.50       0.00       0.00       1.76      14.38      41.44      55.82        0.06     0.01   0.971
  5311                      57.50       0.00       0.00       1.76      14.38      41.44      55.82        0.06     0.01   0.971
  5312                      57.50       0.00       0.00       1.76      14.38      41.44      55.82        0.06     0.01   0.971
  5313                      57.50       0.00       0.00       1.76      14.38      41.44      55.82        0.06     0.01   0.971
  5314                      57.50       0.00       0.00       1.76      14.38      41.44      55.82        0.06     0.01   0.971
  5315                      57.50       0.00       0.00       1.76      14.38      41.44      55.82        0.06     0.01   0.971
  5316                      57.50       0.00       0.00       1.76      14.38      41.44      55.82        0.06     0.01   0.971
  5317                      57.50       0.00       0.00       1.76      14.38      41.44      55.82        0.06     0.01   0.971
  5318                      57.50       0.00       0.00       1.76      14.38      41.44      55.82        0.06     0.01   0.971
  5319                      57.50       0.00       0.00       1.76      14.38      41.44      55.82        0.06     0.01   0.971
  5320                      57.50       0.00       0.00       1.76      14.38      41.44      55.82        0.06     0.01   0.971
  5321                      57.50       0.00       0.00       1.76      14.38      41.44      55.82        0.06     0.01   0.971
  5322                      57.50       0.00       0.00       1.76      14.38      41.44      55.82        0.06     0.01   0.971
  5323                      57.50       0.00       0.00       1.76      14.38      41.44      55.82        0.06     0.01   0.971
  5324                      57.50       0.00       0.00       1.76      14.38      41.44      55.82        0.06     0.01   0.971
  5325                      57.50       0.00       0.00       1.76      14.38      41.44      55.82        0.06     0.01   0.971
  5326                      57.50       0.00       0.00       1.76      14.38      41.44      55.82        0.06     0.01   0.971
  5327                      57.50       0.00       0.00       1.76      14.38      41.44      55.82        0.06     0.01   0.971
  5328                      57.50       0.00       0.00       1.76      14.38      41.44      55.82        0.06     0.01   0.971
  5329                      57.50       0.00       0.00       1.76      14.38      41.44      55.82        0.06     0.01   0.971
  5330                      57.50       0.00       0.00       1.76      14.38      41.44      55.82        0.06     0.01   0.971
  5333                      57.50       0.00       0.00       1.76      14.38      41.44      55.82        0.06     0.01   0.971
  5334                      57.50       0.00       0.00       1.76      14.38      41.44      55.82        0.06     0.01   0.971
  6040                      57.50       0.00       0.00       1.76      14.38      41.44      55.82        0.06     0.01   0.971
  6041                      57.50       0.00       0.00       1.76      14.38      41.44      55.82        0.06     0.01   0.971
  6162                      57.50       0.00       0.00       1.76      14.38      41.44      55.82        0.06     0.01   0.971
  7207                      57.50       0.00       0.00       1.76      14.38      41.44      55.82        0.06     0.01   0.971
  7208                      57.50       0.00       0.00       1.76      14.38      41.44      55.82        0.06     0.01   0.971
  7213                      57.50       0.00       0.00       1.76      14.38      41.44      55.82        0.06     0.01   0.971
  7214                      57.50       0.00       0.00       1.76      14.38      41.44      55.82        0.06     0.01   0.971
  7219                      57.50       0.00       0.00       1.76      14.38      41.44      55.82        0.06     0.01   0.971
  7220                      57.50       0.00       0.00       1.76      14.38      41.44      55.82        0.06     0.01   0.971
  7221                      57.50       0.00       0.00       1.76      14.38      41.44      55.82        0.06     0.01   0.971
  7225                      57.50       0.00       0.00       1.76      14.38      41.44      55.82        0.06     0.01   0.971
  7229                      57.50       0.00       0.00       1.76      14.38      41.44      55.82        0.06     0.01   0.971
  7231                      57.50       0.00       0.00       1.76      14.38      41.44      55.82        0.06     0.01   0.971
  7268                      57.50       0.00       0.00       1.76      14.38      41.44      55.82        0.06     0.01   0.971
  7269                      57.50       0.00       0.00       1.76      14.38      41.44      55.82        0.06     0.01   0.971
  7271                      57.50       0.00       0.00       1.76      14.38      41.44      55.82        0.06     0.01   0.971
  7272                      57.50       0.00       0.00       1.76      14.38      41.44      55.82        0.06     0.01   0.971
  7273                      57.50       0.00       0.00       1.76      14.38      41.44      55.82        0.06     0.01   0.971
  7433                      57.50       0.00       0.00       1.76      14.38      41.44      55.82        0.06     0.01   0.971
  7434                      57.50       0.00       0.00       1.76      14.38      41.44      55.82        0.06     0.01   0.971
  7544                      57.50       0.00       0.00       1.76      14.38      41.44      55.82        0.06     0.01   0.971
  7545                      57.50       0.00       0.00       1.76      14.38      41.44      55.82        0.06     0.01   0.971
  8737                      57.50       0.00       0.00       1.76      14.38      41.44      55.82        0.06     0.01   0.971
  8818                      57.50       0.00       0.00       1.76      14.38      41.44      55.82        0.06     0.01   0.971
  9942                      57.50       0.00       0.00       1.76      14.38      41.44      55.82        0.06     0.01   0.971
  9957                      57.50       0.00       0.00       1.76      14.38      41.44      55.82        0.06     0.01   0.971
  4399                      57.50       0.00       0.00       1.69      14.37      41.49      55.86        0.02     0.00   0.972
  4400                      57.50       0.00       0.00       1.69      14.37      41.49      55.86        0.02     0.00   0.972
  4401                      57.50       0.00       0.00       1.69      14.37      41.49      55.86        0.02     0.00   0.972
  4402                      57.50       0.00       0.00       1.69      14.37      41.49      55.86        0.02     0.00   0.972
  4403                      57.50       0.00       0.00       1.69      14.37      41.49      55.86        0.02     0.00   0.972
  4404                      57.50       0.00       0.00       1.69      14.37      41.49      55.86        0.02     0.00   0.972
  4405                      57.50       0.00       0.00       1.69      14.37      41.49      55.86        0.02     0.00   0.972
  4406                      57.50       0.00       0.00       1.69      14.37      41.49      55.86        0.02     0.00   0.972
  4407                      57.50       0.00       0.00       1.69      14.37      41.49      55.86        0.02     0.00   0.972
  4408                      57.50       0.00       0.00       1.69      14.37      41.49      55.86        0.02     0.00   0.972
  4409                      57.50       0.00       0.00       1.69      14.37      41.49      55.86        0.02     0.00   0.972
  4410                      57.50       0.00       0.00       1.69      14.37      41.49      55.86        0.02     0.00   0.972
  4411                      57.50       0.00       0.00       1.69      14.37      41.49      55.86        0.02     0.00   0.972
  4412                      57.50       0.00       0.00       1.69      14.37      41.49      55.86        0.02     0.00   0.972
  4423                      57.50       0.00       0.00       1.69      14.37      41.49      55.86        0.02     0.00   0.972
  4424                      57.50       0.00       0.00       1.69      14.37      41.49      55.86        0.02     0.00   0.972
  4425                      57.50       0.00       0.00       1.69      14.37      41.49      55.86        0.02     0.00   0.972
  4426                      57.50       0.00       0.00       1.69      14.37      41.49      55.86        0.02     0.00   0.972
  4427                      57.50       0.00       0.00       1.69      14.37      41.49      55.86        0.02     0.00   0.972
  4428                      57.50       0.00       0.00       1.69      14.37      41.49      55.86        0.02     0.00   0.972
  4455                      57.50       0.00       0.00       1.69      14.37      41.49      55.86        0.02     0.00   0.972
  4456                      57.50       0.00       0.00       1.69      14.37      41.49      55.86        0.02     0.00   0.972
  4457                      57.50       0.00       0.00       1.69      14.37      41.49      55.86        0.02     0.00   0.972
  4458                      57.50       0.00       0.00       1.69      14.37      41.49      55.86        0.02     0.00   0.972
  4459                      57.50       0.00       0.00       1.69      14.37      41.49      55.86        0.02     0.00   0.972
  4460                      57.50       0.00       0.00       1.69      14.37      41.49      55.86        0.02     0.00   0.972
  4461                      57.50       0.00       0.00       1.69      14.37      41.49      55.86        0.02     0.00   0.972
  4464                      57.50       0.00       0.00       1.69      14.37      41.49      55.86        0.02     0.00   0.972
  4465                      57.50       0.00       0.00       1.69      14.37      41.49      55.86        0.02     0.00   0.972
  4466                      57.50       0.00       0.00       1.69      14.37      41.49      55.86        0.02     0.00   0.972
  4467                      57.50       0.00       0.00       1.69      14.37      41.49      55.86        0.02     0.00   0.972
  4468                      57.50       0.00       0.00       1.69      14.37      41.49      55.86        0.02     0.00   0.972
  4469                      57.50       0.00       0.00       1.69      14.37      41.49      55.86        0.02     0.00   0.972
  4470                      57.50       0.00       0.00       1.69      14.37      41.49      55.86        0.02     0.00   0.972
  4471                      57.50       0.00       0.00       1.69      14.37      41.49      55.86        0.02     0.00   0.972
  4472                      57.50       0.00       0.00       1.69      14.37      41.49      55.86        0.02     0.00   0.972
  4473                      57.50       0.00       0.00       1.69      14.37      41.49      55.86        0.02     0.00   0.972
  4474                      57.50       0.00       0.00       1.69      14.37      41.49      55.86        0.02     0.00   0.972
  4628                      57.50       0.00       0.00       1.69      14.37      41.49      55.86        0.02     0.00   0.972
  4631                      57.50       0.00       0.00       1.69      14.37      41.49      55.86        0.02     0.00   0.972
  4632                      57.50       0.00       0.00       1.69      14.37      41.49      55.86        0.02     0.00   0.972
  4633                      57.50       0.00       0.00       1.69      14.37      41.49      55.86        0.02     0.00   0.972
  4634                      57.50       0.00       0.00       1.69      14.37      41.49      55.86        0.02     0.00   0.972
  4637                      57.50       0.00       0.00       1.69      14.37      41.49      55.86        0.02     0.00   0.972
  4686                      57.50       0.00       0.00       1.69      14.37      41.49      55.86        0.02     0.00   0.972
  4687                      57.50       0.00       0.00       1.69      14.37      41.49      55.86        0.02     0.00   0.972
  4688                      57.50       0.00       0.00       1.69      14.37      41.49      55.86        0.02     0.00   0.972
  5032                      57.50       0.00       0.00       1.69      14.37      41.49      55.86        0.02     0.00   0.972
  5331                      57.50       0.00       0.00       1.69      14.37      41.49      55.86        0.02     0.00   0.972
  5332                      57.50       0.00       0.00       1.69      14.37      41.49      55.86        0.02     0.00   0.972
  5335                      57.50       0.00       0.00       1.69      14.37      41.49      55.86        0.02     0.00   0.972
  5336                      57.50       0.00       0.00       1.69      14.37      41.49      55.86        0.02     0.00   0.972
  5337                      57.50       0.00       0.00       1.69      14.37      41.49      55.86        0.02     0.00   0.972
  5338                      57.50       0.00       0.00       1.69      14.37      41.49      55.86        0.02     0.00   0.972
  5339                      57.50       0.00       0.00       1.69      14.37      41.49      55.86        0.02     0.00   0.972
  5340                      57.50       0.00       0.00       1.69      14.37      41.49      55.86        0.02     0.00   0.972
  5341                      57.50       0.00       0.00       1.69      14.37      41.49      55.86        0.02     0.00   0.972
  5342                      57.50       0.00       0.00       1.69      14.37      41.49      55.86        0.02     0.00   0.972
  5343                      57.50       0.00       0.00       1.69      14.37      41.49      55.86        0.02     0.00   0.972
  5344                      57.50       0.00       0.00       1.69      14.37      41.49      55.86        0.02     0.00   0.972
  5345                      57.50       0.00       0.00       1.69      14.37      41.49      55.86        0.02     0.00   0.972
  5346                      57.50       0.00       0.00       1.69      14.37      41.49      55.86        0.02     0.00   0.972
  5347                      57.50       0.00       0.00       1.69      14.37      41.49      55.86        0.02     0.00   0.972
  5348                      57.50       0.00       0.00       1.69      14.37      41.49      55.86        0.02     0.00   0.972
  5349                      57.50       0.00       0.00       1.69      14.37      41.49      55.86        0.02     0.00   0.972
  5350                      57.50       0.00       0.00       1.69      14.37      41.49      55.86        0.02     0.00   0.972
  6088                      57.50       0.00       0.00       1.69      14.37      41.49      55.86        0.02     0.00   0.972
  7275                      57.50       0.00       0.00       1.69      14.37      41.49      55.86        0.02     0.00   0.972
  9955                      57.50       0.00       0.00       1.69      14.37      41.49      55.86        0.02     0.00   0.972
  9956                      57.50       0.00       0.00       1.69      14.37      41.49      55.86        0.02     0.00   0.972
  
  
  ****************************
  Subcatchment Washoff Summary
  ****************************
  
  ----------------------------------
                                 COD
  Subcatchment                    kg
  ----------------------------------
  2707                        14.680
  2708                        14.680
  2709                        14.680
  2710                        14.680
  2712                        14.680
  2713                        14.680
  2714                        14.680
  2715                        14.680
  2716                        14.680
  2717                        14.680
  2718                        14.680
  2719                        14.680
  2721                        14.680
  2722                        14.680
  2723                        14.680
  2724                        14.680
  2725                        14.680
  2726                        14.680
  2727                        14.680
  2728                        14.680
  2729                        14.680
  2730                        14.680
  2731                        14.680
  2732                        14.680
  2733                        14.680
  2734                        14.680
  2735                        14.680
  2736                        14.680
  2737                        14.680
  2738                        14.680
  2739                        14.680
  2740                        14.680
  2741                        14.680
  2742                        14.680
  2743                        14.680
  2744                        14.680
  2745                        14.680
  2746                        14.680
  2747                        14.680
  2748                        14.680
  2749                        14.680
  2750                        14.680
  2751                        14.680
  2752                        14.680
  2753                        14.680
  2754                        14.680
  2755                        14.680
  2756                        14.680
  2964                        14.680
  2969                        14.680
  2970                        14.680
  2974                        14.680
  2975                        14.680
  2976                        14.680
  2977                        14.680
  2978                        14.680
  2979                        14.680
  2980                        14.680
  2981                        14.680
  2982                        14.680
  2984                        14.680
  2985                        14.680
  3925                        14.680
  3926                        14.680
  3927                        14.680
  3928                        14.680
  3929                        14.680
  3930                        14.680
  3931                        14.680
  3932                        14.680
  3933                        14.680
  3934                        14.680
  3935                        14.680
  3936                        14.680
  3937                        14.680
  3938                        14.680
  3939                        14.680
  3940                        14.680
  3941                        14.680
  3942                        14.680
  3943                        14.680
  3944                        14.680
  3945                        14.680
  3946                        14.680
  3947                        14.680
  3948                        14.680
  3949                        14.680
  3950                        14.680
  3951                        14.680
  3952                        14.680
  3953                        14.680
  3954                        14.680
  3955                        14.680
  3956                        14.680
  4032                        14.680
  4033                        14.680
  4041                        14.680
  4051                        14.680
  4055                        14.680
  4056                        14.680
  4058                        14.680
  4385                        14.680
  4386                        14.680
  4387                        14.680
  4388                        14.680
  4389                        14.680
  4390                        14.680
  4391                        14.680
  4392                        14.680
  4393                        14.680
  4394                        14.680
  4395                        14.680
  4396                        14.680
  4397                        14.680
  4398                        14.680
  4429                        14.680
  4430                        14.680
  4431                        14.680
  4432                        14.680
  4433                        14.680
  4434                        14.680
  4435                        14.680
  4436                        14.680
  4437                        14.680
  4438                        14.680
  4439                        14.680
  4440                        14.680
  4441                        14.680
  4442                        14.680
  4443                        14.680
  4444                        14.680
  4445                        14.680
  4446                        14.680
  4447                        14.680
  4448                        14.680
  4449                        14.680
  4450                        14.680
  4451                        14.680
  4452                        14.680
  4453                        14.680
  4454                        14.680
  4462                        14.680
  4463                        14.680
  4563                        14.680
  4564                        14.680
  4565                        14.680
  4566                        14.680
  4567                        14.680
  4568                        14.680
  4569                        14.680
  4570                        14.680
  4571                        14.680
  4572                        14.680
  4573                        14.680
  4574                        14.680
  4575                        14.680
  4576                        14.680
  4577                        14.680
  4578                        14.680
  4579                        14.680
  4580                        14.680
  4581                        14.680
  4624                        14.680
  4625                        14.680
  4644                        14.680
  4645                        14.680
  4646                        14.680
  4679                        14.680
  4680                        14.680
  4681                        14.680
  4682                        14.680
  4683                        14.680
  4711                        14.680
  4712                        14.680
  4713                        14.680
  4714                        14.680
  4715                        14.680
  4716                        14.680
  4717                        14.680
  4718                        14.680
  4722                        14.680
  4760                        14.680
  4761                        14.680
  4765                        14.680
  4766                        14.680
  4767                        14.680
  4768                        14.680
  4769                        14.680
  4855                        14.680
  4856                        14.680
  5284                        14.680
  5285                        14.680
  5286                        14.680
  5287                        14.680
  5288                        14.680
  5289                        14.680
  5290                        14.680
  5291                        14.680
  5292                        14.680
  5293                        14.680
  5294                        14.680
  5295                        14.680
  5296                        14.680
  5297                        14.680
  5298                        14.680
  5299                        14.680
  5300                        14.680
  5301                        14.680
  5302                        14.680
  5303                        14.680
  5304                        14.680
  5305                        14.680
  5306                        14.680
  5307                        14.680
  5308                        14.680
  5309                        14.680
  5310                        14.680
  5311                        14.680
  5312                        14.680
  5313                        14.680
  5314                        14.680
  5315                        14.680
  5316                        14.680
  5317                        14.680
  5318                        14.680
  5319                        14.680
  5320                        14.680
  5321                        14.680
  5322                        14.680
  5323                        14.680
  5324                        14.680
  5325                        14.680
  5326                        14.680
  5327                        14.680
  5328                        14.680
  5329                        14.680
  5330                        14.680
  5333                        14.680
  5334                        14.680
  6040                        14.680
  6041                        14.680
  6162                        14.680
  7207                        14.680
  7208                        14.680
  7213                        14.680
  7214                        14.680
  7219                        14.680
  7220                        14.680
  7221                        14.680
  7225                        14.680
  7229                        14.680
  7231                        14.680
  7268                        14.680
  7269                        14.680
  7271                        14.680
  7272                        14.680
  7273                        14.680
  7433                        14.680
  7434                        14.680
  7544                        14.680
  7545                        14.680
  8737                        14.680
  8818                        14.680
  9942                        14.680
  9957                        14.680
  4399                         4.408
  4400                         4.408
  4401                         4.408
  4402                         4.408
  4403                         4.408
  4404                         4.408
  4405                         4.408
  4406                         4.408
  4407                         4.408
  4408                         4.408
  4409                         4.408
  4410                         4.408
  4411                         4.408
  4412                         4.408
  4423                         4.408
  4424                         4.408
  4425                         4.408
  4426                         4.408
  4427                         4.408
  4428                         4.408
  4455                         4.408
  4456                         4.408
  4457                         4.408
  4458                         4.408
  4459                         4.408
  4460                         4.408
  4461                         4.408
  4464                         4.408
  4465                         4.408
  4466                         4.408
  4467                         4.408
  4468                         4.408
  4469                         4.408
  4470                         4.408
  4471                         4.408
  4472                         4.408
  4473                         4.408
  4474                         4.408
  4628                         4.408
  4631                         4.408
  4632                         4.408
  4633                         4.408
  4634                         4.408
  4637                         4.408
  4686                         4.408
  4687                         4.408
  4688                         4.408
  5032                         4.408
  5331                         4.408
  5332                         4.408
  5335                         4.408
  5336                         4.408
  5337                         4.408
  5338                         4.408
  5339                         4.408
  5340                         4.408
  5341                         4.408
  5342                         4.408
  5343                         4.408
  5344                         4.408
  5345                         4.408
  5346                         4.408
  5347                         4.408
  5348                         4.408
  5349                         4.408
  5350                         4.408
  6088                         4.408
  7275                         4.408
  9955                         4.408
  9956                         4.408
  ----------------------------------
  System                    4198.608
  
  
  ******************
  Node Depth Summary
  ******************
  
  ---------------------------------------------------------------------------------
                                 Average  Maximum  Maximum  Time of Max    Reported
                                   Depth    Depth      HGL   Occurrence   Max Depth
  Node                 Type       Meters   Meters   Meters  days hr:min      Meters
  ---------------------------------------------------------------------------------
  Node_02706           JUNCTION     2.94     4.91   101.75     0  02:52        0.00
  Node_02707           JUNCTION     1.05     2.79   102.22     0  02:21        0.00
  Node_02708           JUNCTION     0.92     2.83   102.59     0  02:20        0.00
  Node_02709           JUNCTION     1.02     3.05   102.69     0  02:20        0.00
  Node_02711           JUNCTION     0.71     2.76   102.67     0  02:20        0.00
  Node_02712           JUNCTION     0.72     2.74   102.64     0  02:20        0.00
  Node_02713           JUNCTION     0.76     2.72   102.57     0  02:20        0.00
  Node_02714           JUNCTION     0.39     2.19   102.59     0  02:20        0.00
  Node_02715           JUNCTION     0.77     2.58   102.39     0  02:20        0.00
  Node_02716           JUNCTION     0.83     2.52   102.24     0  02:20        0.00
  Node_02717           JUNCTION     0.89     2.58   102.22     0  02:21        0.00
  Node_02718           JUNCTION     0.90     2.65   102.25     0  02:21        0.00
  Node_02720           JUNCTION     0.92     2.68   102.25     0  02:21        0.00
  Node_02721           JUNCTION     1.22     3.03   102.28     0  02:21        0.00
  Node_02722           JUNCTION     0.14     0.76   102.56     0  02:21        0.00
  Node_02723           JUNCTION     1.16     2.90   102.19     0  02:21        0.00
  Node_02724           JUNCTION     1.01     2.68   102.10     0  02:21        0.00
  Node_02725           JUNCTION     1.04     2.62   101.98     0  02:21        0.00
  Node_02726           JUNCTION     1.11     2.60   101.86     0  02:21        0.00
  Node_02727           JUNCTION     1.21     2.62   101.75     0  02:21        0.00
  Node_02728           JUNCTION     0.56     1.68   101.76     0  02:21        0.00
  Node_02729           JUNCTION     1.25     2.57   101.63     0  02:21        0.00
  Node_02730           JUNCTION     1.27     2.46   101.49     0  02:21        0.00
  Node_02731           JUNCTION     1.68     2.72   101.31     0  02:21        0.00
  Node_02732           JUNCTION     1.24     2.19   101.21     0  02:19        0.00
  Node_02733           JUNCTION     1.24     2.30   101.31     0  02:19        0.00
  Node_02734           JUNCTION     1.53     2.70   101.41     0  02:19        0.00
  Node_02735           JUNCTION     1.43     2.61   101.42     0  02:19        0.00
  Node_02736           JUNCTION     1.62     2.86   101.47     0  02:19        0.00
  Node_02737           JUNCTION     1.60     2.88   101.50     0  02:19        0.00
  Node_02738           JUNCTION     1.43     2.77   101.54     0  02:19        0.00
  Node_02739           JUNCTION     1.31     2.70   101.57     0  02:53        0.00
  Node_02740           JUNCTION     1.32     2.76   101.60     0  02:52        0.00
  Node_02741           JUNCTION     0.98     2.32   101.61     0  02:52        0.00
  Node_02742           JUNCTION     1.33     2.84   101.64     0  02:52        0.00
  Node_02743           JUNCTION     1.75     3.30   101.67     0  02:52        0.00
  Node_02744           JUNCTION     0.93     2.33   101.68     0  02:53        0.00
  Node_02745           JUNCTION     1.47     3.07   101.69     0  02:52        0.00
  Node_02746           JUNCTION     1.37     3.02   101.71     0  02:52        0.00
  Node_02747           JUNCTION     0.35     1.36   101.71     0  02:52        0.00
  Node_02748           JUNCTION     0.31     1.26   101.71     0  02:52        0.00
  Node_02749           JUNCTION     1.38     3.08   101.72     0  02:53        0.00
  Node_02750           JUNCTION     1.39     3.12   101.73     0  02:53        0.00
  Node_02751           JUNCTION     1.37     3.14   101.73     0  02:52        0.00
  Node_02752           JUNCTION     1.38     3.19   101.74     0  02:52        0.00
  Node_02753           JUNCTION     1.41     3.27   101.75     0  02:52        0.00
  Node_02754           JUNCTION     1.47     3.42   101.74     0  02:52        0.00
  Node_02755           JUNCTION     2.39     4.35   101.74     0  02:52        0.00
  Node_02963           JUNCTION     0.70     2.33   102.24     0  02:21        0.00
  Node_02968           JUNCTION     0.47     1.46   101.58     0  02:18        0.00
  Node_02969           JUNCTION     0.59     1.79   101.67     0  02:53        0.00
  Node_02973           JUNCTION     1.92     3.86   101.74     0  02:52        0.00
  Node_02974           JUNCTION     2.18     4.50   101.63     0  02:52        0.00
  Node_02975           JUNCTION     2.18     4.50   101.63     0  02:52        0.00
  Node_02976           JUNCTION     2.22     4.49   101.68     0  02:52        0.00
  Node_02977           JUNCTION     2.21     4.43   101.76     0  02:52        0.00
  Node_02978           JUNCTION     2.10     4.29   101.82     0  02:52        0.00
  Node_02979           JUNCTION     2.13     4.48   101.60     0  02:33        0.00
  Node_02980           JUNCTION     2.07     4.48   101.56     0  02:52        0.00
  Node_02981           JUNCTION     2.08     4.57   101.52     0  02:33        0.00
  Node_02983           JUNCTION     0.47     1.42   101.54     0  02:19        0.00
  Node_02984           JUNCTION     2.55     4.76   101.74     0  02:52        0.00
  Node_03924           JUNCTION     0.27     1.00   101.82     0  02:19        0.00
  Node_03925           JUNCTION     0.66     2.06   102.43     0  02:33        0.00
  Node_03926           JUNCTION     0.18     0.96   102.43     0  02:58        0.00
  Node_03927           JUNCTION     0.64     2.05   102.43     0  02:58        0.00
  Node_03928           JUNCTION     0.66     2.08   102.42     0  02:40        0.00
  Node_03929           JUNCTION     0.67     2.10   102.40     0  02:25        0.00
  Node_03930           JUNCTION     0.70     2.13   102.39     0  02:54        0.00
  Node_03931           JUNCTION     0.69     2.13   102.37     0  02:45        0.00
  Node_03932           JUNCTION     0.73     2.16   102.32     0  02:41        0.00
  Node_03933           JUNCTION     0.72     2.13   102.26     0  02:29        0.00
  Node_03934           JUNCTION     0.35     1.40   102.26     0  03:11        0.00
  Node_03935           JUNCTION     0.78     2.17   102.15     0  02:47        0.00
  Node_03936           JUNCTION     0.79     2.12   102.05     0  03:01        0.00
  Node_03937           JUNCTION     1.32     1.77   101.93     0  02:19        0.00
  Node_03938           JUNCTION     1.52     3.25   102.44     0  02:45        0.00
  Node_03939           JUNCTION     1.63     3.39   102.43     0  02:52        0.00
  Node_03940           JUNCTION     1.70     3.47   102.40     0  02:31        0.00
  Node_03941           JUNCTION     1.78     3.53   102.34     0  02:19        0.00
  Node_03942           JUNCTION     1.81     3.54   102.29     0  02:26        0.00
  Node_03943           JUNCTION     1.89     3.58   102.19     0  01:55        0.00
  Node_03944           JUNCTION     1.99     3.69   102.17     0  01:55        0.00
  Node_03945           JUNCTION     2.05     3.78   102.20     0  02:16        0.00
  Node_03946           JUNCTION     2.12     3.89   102.24     0  02:41        0.00
  Node_03947           JUNCTION     2.44     4.43   102.32     0  02:52        0.00
  Node_03948           JUNCTION     2.42     4.49   102.34     0  02:52        0.00
  Node_03949           JUNCTION     2.54     4.64   102.34     0  02:54        0.00
  Node_03950           JUNCTION     2.42     4.58   102.35     0  02:52        0.00
  Node_03951           JUNCTION     2.42     4.66   102.35     0  02:52        0.00
  Node_03952           JUNCTION     2.45     4.75   102.34     0  02:52        0.00
  Node_03953           JUNCTION     2.37     4.75   102.33     0  02:52        0.00
  Node_03954           JUNCTION     3.25     5.68   102.26     0  02:33        0.00
  Node_03955           JUNCTION     2.21     4.66   102.15     0  02:52        0.00
  Node_04031           JUNCTION     0.41     1.03   102.26     0  02:19        0.00
  Node_04032           JUNCTION     2.08     3.93   102.28     0  02:33        0.00
  Node_04040           JUNCTION     0.73     1.74   102.28     0  02:24        0.00
  Node_04050           JUNCTION     0.43     1.49   102.45     0  02:17        0.00
  Node_04054           JUNCTION     0.27     1.29   102.43     0  02:36        0.00
  Node_04055           JUNCTION     0.43     1.51   102.32     0  02:30        0.00
  Node_04057           JUNCTION     0.47     1.60   101.91     0  02:19        0.00
  Node_04384           JUNCTION     2.24     4.34   101.92     0  02:20        0.00
  Node_04385           JUNCTION     1.94     4.05   101.97     0  02:20        0.00
  Node_04386           JUNCTION     1.94     4.04   101.98     0  02:20        0.00
  Node_04387           JUNCTION     1.93     4.02   101.99     0  02:20        0.00
  Node_04388           JUNCTION     1.91     4.00   102.00     0  02:20        0.00
  Node_04389           JUNCTION     0.51     1.64   102.01     0  02:20        0.00
  Node_04390           JUNCTION     1.91     3.98   102.00     0  02:20        0.00
  Node_04391           JUNCTION     1.89     3.93   102.00     0  02:20        0.00
  Node_04392           JUNCTION     2.00     4.03   101.99     0  02:20        0.00
  Node_04393           JUNCTION     1.87     3.86   101.97     0  02:20        0.00
  Node_04394           JUNCTION     0.80     2.33   101.97     0  02:20        0.00
  Node_04395           JUNCTION     1.85     3.79   101.94     0  02:20        0.00
  Node_04396           JUNCTION     1.82     3.71   101.91     0  02:20        0.00
  Node_04397           JUNCTION     0.66     2.00   101.90     0  02:19        0.00
  Node_04428           JUNCTION     1.83     3.69   101.91     0  02:52        0.00
  Node_04429           JUNCTION     1.81     3.65   101.90     0  02:36        0.00
  Node_04430           JUNCTION     1.79     3.62   101.90     0  02:35        0.00
  Node_04431           JUNCTION     1.57     3.32   101.89     0  02:56        0.00
  Node_04432           JUNCTION     1.47     3.21   101.89     0  02:53        0.00
  Node_04433           JUNCTION     1.30     3.00   101.88     0  02:53        0.00
  Node_04434           JUNCTION     1.58     3.28   101.87     0  02:55        0.00
  Node_04435           JUNCTION     1.43     3.08   101.85     0  02:36        0.00
  Node_04436           JUNCTION     1.82     3.45   101.84     0  02:54        0.00
  Node_04437           JUNCTION     1.94     3.53   101.82     0  02:35        0.00
  Node_04438           JUNCTION     2.24     3.82   101.83     0  02:35        0.00
  Node_04439           JUNCTION     1.29     2.86   101.83     0  02:35        0.00
  Node_04440           JUNCTION     1.28     2.82   101.84     0  02:56        0.00
  Node_04441           JUNCTION     1.01     2.51   101.84     0  02:34        0.00
  Node_04442           JUNCTION     1.34     2.87   101.84     0  02:36        0.00
  Node_04443           JUNCTION     1.20     2.71   101.84     0  02:46        0.00
  Node_04444           JUNCTION     1.18     2.67   101.85     0  02:53        0.00
  Node_04445           JUNCTION     1.11     2.59   101.85     0  02:34        0.00
  Node_04446           JUNCTION     1.08     2.53   101.86     0  02:47        0.00
  Node_04447           JUNCTION     1.01     2.43   101.87     0  02:58        0.00
  Node_04448           JUNCTION     1.03     2.43   101.89     0  02:55        0.00
  Node_04449           JUNCTION     1.04     2.44   101.89     0  02:53        0.00
  Node_04450           JUNCTION     1.19     2.59   101.91     0  03:07        0.00
  Node_04451           JUNCTION     1.00     2.38   101.92     0  02:36        0.00
  Node_04452           JUNCTION     0.76     2.11   101.93     0  03:40        0.00
  Node_04453           JUNCTION     0.56     1.72   101.94     0  03:40        0.00
  Node_04461           JUNCTION     0.96     2.29   101.91     0  02:18        0.00
  Node_04462           JUNCTION     0.95     2.32   101.97     0  02:45        0.00
  Node_04562           JUNCTION     0.91     2.46   102.05     0  02:18        0.00
  Node_04563           JUNCTION     1.25     2.92   102.04     0  02:18        0.00
  Node_04564           JUNCTION     1.05     2.70   102.08     0  02:18        0.00
  Node_04565           JUNCTION     1.07     2.75   102.11     0  02:18        0.00
  Node_04566           JUNCTION     1.21     2.90   102.09     0  02:18        0.00
  Node_04567           JUNCTION     1.17     2.84   102.06     0  02:18        0.00
  Node_04568           JUNCTION     1.18     2.84   102.03     0  02:18        0.00
  Node_04569           JUNCTION     1.34     3.04   102.01     0  02:18        0.00
  Node_04570           JUNCTION     0.85     2.28   102.02     0  02:18        0.00
  Node_04571           JUNCTION     1.35     2.99   101.92     0  02:18        0.00
  Node_04572           JUNCTION     2.74     4.45   101.98     0  02:18        0.00
  Node_04573           JUNCTION     2.42     4.17   102.01     0  02:18        0.00
  Node_04574           JUNCTION     2.61     3.74   102.04     0  02:18        0.00
  Node_04575           JUNCTION     2.91     4.72   102.04     0  02:18        0.00
  Node_04576           JUNCTION     1.54     3.35   102.00     0  02:18        0.00
  Node_04577           JUNCTION     1.57     3.40   101.98     0  02:19        0.00
  Node_04578           JUNCTION     1.62     3.45   101.96     0  02:20        0.00
  Node_04579           JUNCTION     1.69     3.52   101.93     0  02:36        0.00
  Node_04580           JUNCTION     0.74     1.98   101.76     0  02:17        0.00
  Node_04623           JUNCTION     0.74     2.31   101.97     0  02:20        0.00
  Node_04624           JUNCTION     0.91     2.38   101.84     0  02:19        0.00
  Node_04643           JUNCTION     0.71     1.99   101.89     0  02:55        0.00
  Node_04644           JUNCTION     0.72     2.01   101.85     0  02:55        0.00
  Node_04645           JUNCTION     0.90     2.05   101.65     0  02:17        0.00
  Node_04678           JUNCTION     0.76     2.18   101.91     0  02:56        0.00
  Node_04679           JUNCTION     0.50     1.79   101.97     0  02:20        0.00
  Node_04680           JUNCTION     2.02     4.13   101.90     0  02:52        0.00
  Node_04681           JUNCTION     2.01     4.15   101.87     0  02:52        0.00
  Node_04682           JUNCTION     0.30     1.00   102.01     0  02:18        0.00
  Node_04710           JUNCTION     0.70     2.07   102.06     0  05:12        0.00
  Node_04711           JUNCTION     0.74     2.61   102.60     0  05:27        0.00
  Node_04712           JUNCTION     0.75     2.61   102.62     0  04:39        0.00
  Node_04713           JUNCTION     0.71     2.58   102.63     0  02:17        0.00
  Node_04714           JUNCTION     0.75     2.60   102.65     0  02:17        0.00
  Node_04715           JUNCTION     0.73     2.52   102.61     0  02:17        0.00
  Node_04716           JUNCTION     0.72     2.46   102.59     0  02:17        0.00
  Node_04717           JUNCTION     0.42     1.62   101.92     0  02:17        0.00
  Node_04721           JUNCTION     0.58     1.64   101.99     0  02:18        0.00
  Node_04759           JUNCTION     0.64     1.83   102.01     0  02:18        0.00
  Node_04760           JUNCTION     0.68     2.11   101.57     0  02:33        0.00
  Node_04764           JUNCTION     0.67     1.59   101.51     0  02:17        0.00
  Node_04765           JUNCTION     0.51     1.51   101.93     0  02:20        0.00
  Node_04766           JUNCTION     0.88     2.25   102.02     0  02:18        0.00
  Node_04767           JUNCTION     0.85     2.29   102.12     0  02:18        0.00
  Node_04768           JUNCTION     0.92     2.35   102.01     0  02:18        0.00
  Node_04854           JUNCTION     0.42     1.56   102.00     0  02:20        0.00
  Node_04855           JUNCTION     1.00     2.12   102.05     0  02:18        0.00
  Node_05283           JUNCTION     1.93     3.63   102.25     0  02:52        0.00
  Node_05284           JUNCTION     1.90     3.58   102.24     0  03:03        0.00
  Node_05285           JUNCTION     1.84     3.47   102.22     0  01:55        0.00
  Node_05286           JUNCTION     1.81     3.42   102.22     0  01:55        0.00
  Node_05287           JUNCTION     1.79     3.42   102.27     0  02:17        0.00
  Node_05288           JUNCTION     1.78     3.41   102.28     0  01:56        0.00
  Node_05289           JUNCTION     1.27     2.70   102.22     0  01:55        0.00
  Node_05290           JUNCTION     1.77     3.40   102.29     0  01:56        0.00
  Node_05291           JUNCTION     1.57     3.19   102.39     0  01:56        0.00
  Node_05292           JUNCTION     1.54     3.17   102.41     0  02:38        0.00
  Node_05293           JUNCTION     1.53     3.15   102.41     0  01:56        0.00
  Node_05294           JUNCTION     1.50     3.11   102.42     0  01:56        0.00
  Node_05295           JUNCTION     1.54     3.15   102.42     0  02:32        0.00
  Node_05296           JUNCTION     1.51     3.12   102.44     0  02:19        0.00
  Node_05297           JUNCTION     1.31     2.78   102.29     0  01:56        0.00
  Node_05298           JUNCTION     1.46     3.04   102.44     0  02:20        0.00
  Node_05299           JUNCTION     1.45     3.03   102.44     0  02:28        0.00
  Node_05300           JUNCTION     1.43     2.98   102.43     0  03:09        0.00
  Node_05301           JUNCTION     1.39     2.93   102.42     0  02:18        0.00
  Node_05302           JUNCTION     1.39     2.93   102.43     0  02:39        0.00
  Node_05303           JUNCTION     1.36     2.88   102.43     0  02:18        0.00
[...]
  Link_05460                  3.74      3.74      3.74      0.01         0.03
  Link_05461                  3.80      3.80      3.81      0.95         0.96
  Link_05462                  3.86      3.86      3.87      1.55         1.13
  Link_05463                  3.89      3.89      3.89      1.30         1.23
  Link_05464                  3.92      3.92      3.92      0.01         0.89
  Link_05496                  4.17      4.20      4.17      3.83         3.71
  Link_05662                  1.82      1.82      1.85      0.01         0.01
  Link_05663                  2.42      2.42      2.78      0.01         0.01
  Link_05664                  4.41      4.41      4.42      0.01         0.01
  Link_05665                  4.42      4.49      4.42      4.83         4.30
  Link_05677                  4.42      4.42      4.42      3.41         2.55
  Link_05678                  2.45      2.45      2.46      0.01         0.01
  Link_05720                  4.10      4.10      4.10      0.90         0.82
  Link_05721                  4.11      4.12      4.11      0.32         0.15
  Link_05722                  2.66      2.66      2.69      0.01         0.01
  Link_05723                  1.65      1.65      2.65      0.01         0.01
  Link_05725                  0.07      0.07      0.26      0.01         0.01
  Link_05726                  4.04      4.04      4.06      0.01         0.01
  Link_05727                  4.04      4.04      4.05      0.01         0.04
  Link_05728                  3.35      3.35      3.46      0.01         0.01
  Link_05729                  2.83      2.83      2.84      1.31         1.27
  Link_05730                  2.97      2.97      2.97      0.01         0.01
  Link_05731                  3.56      3.57      3.56      1.39         1.85
  Link_05732                  2.95      2.95      2.97      0.01         0.01
  Link_05742                  2.61      2.61      2.64      0.01         0.01
  Link_05743                  4.07      4.07      4.09      0.01         0.01
  Link_05744                  4.23      4.23      4.32      0.01         0.01
  Link_05752                  2.37      2.37      2.39      1.74         0.01
  Link_05753                  1.18      1.19      1.20      0.01         0.24
  Link_05754                  0.08      0.08      0.14      0.01         0.01
  Link_05791                  2.47      2.47      2.95      0.01         0.01
  Link_05812                  3.85      3.85      4.10      0.01         0.01
  Link_05813                  3.42      3.42      3.47      0.01         0.01
  Link_05814                  3.11      3.11      3.16      0.01         0.01
  Link_05815                  3.00      3.00      3.05      0.01         0.01
  Link_05816                  2.68      2.68      2.69      0.01         0.01
  Link_05817                  2.69      2.69      2.72      0.01         0.01
  Link_05818                  2.69      2.69      2.69      0.01         0.01
  Link_05983                  2.06      2.06      2.15      0.01         0.01
  Link_05984                  1.85      1.85      1.91      0.01         0.01
  Link_07220                  2.17      2.17      2.22      0.02         0.06
  Link_07221                  2.22      2.22      2.22      1.24         1.22
  Link_07222                  2.22      2.22      2.23      0.38         0.40
  Link_07230                  2.23      2.23      2.33      0.29         0.28
  Link_07231                  2.30      2.33      2.30      1.08         1.02
  Link_07233                  2.56      2.67      2.56      2.91         2.54
  Link_07234                  2.60      2.63      2.60      3.22         2.60
  Link_07235                  2.70      2.70      2.72      1.01         0.99
  Link_07270                  1.32      1.32      1.79      0.01         0.01
  Link_07271                  1.79      1.79      1.90      0.01         0.02
  Link_07274                  1.43      1.43      1.45      0.01         0.10
  Link_07277                  1.96      1.97      2.04      0.01         0.03
  Link_07278                  2.08      2.08      2.11      0.03         0.06
  Link_07295                  2.10      2.11      2.13      0.03         0.04
  Link_07296                  2.13      2.13      2.16      0.18         0.12
  Link_07297                  2.16      2.16      2.17      1.23         1.15
  Link_07303                  2.07      2.07      2.08      0.01         0.03
  Link_07306                  1.78      1.78      1.99      0.01         0.01
  Link_07464                  3.22      3.22      3.24      0.01         0.01
  Link_07578                  2.45      2.45      2.47      0.01         0.01
  Link_07579                  2.71      2.71      2.80      0.01         0.01
  Link_07580                  2.63      2.63      2.71      0.01         0.01
  Link_07687                  3.61      3.61      3.64      0.01         0.01
  Link_07865                  2.71      2.71      2.72      0.01         0.75
  Link_08891                  2.03      2.03      2.52      0.01         0.01
  Link_08912                  2.17      2.17      2.66      0.01         0.01
  Link1_to_ChengXi            4.00      4.00      4.02      0.01         0.01
  Link2_to_ChengXi            3.99      4.72      3.99      4.72         3.86
  Link3_to_ChengXi            2.20      2.65      2.23      2.49         1.99
  Link_to_LaoDongLu           2.97      2.97      2.97      0.01         0.01
  
  
  ***************
  Pumping Summary
  ***************
  
  ---------------------------------------------------------------------------------------------------------
                                                  Min       Avg       Max     Total     Power    % Time Off
                        Percent   Number of      Flow      Flow      Flow    Volume     Usage    Pump Curve
  Pump                 Utilized   Start-Ups       CMS       CMS       CMS  10^6 ltr     Kw-hr    Low   High
  ---------------------------------------------------------------------------------------------------------
  Pump_ChengXi1           75.53         165      0.00      0.17      0.17     2.724     22.03    0.0    0.0
  Pump_ChengXi2           63.06         170      0.00      0.17      0.17     2.274     18.27    0.0    0.0
  Pump_ChengXi3           45.44          69      0.00      0.17      0.17     1.639     10.16    0.0    0.0
  Pump_ChengXi4           34.31          39      0.00      0.17      0.17     1.237      6.52    0.0    0.0
  Pump_LaoDongLu1         86.11          10      0.00      0.03      0.03     0.502      4.46    0.0    0.0
  Pump_LaoDongLu2         40.28          16      0.00      0.03      0.03     0.231      2.18    0.0    0.0
  Pump_LaoDongLu3         18.06          10      0.00      0.03      0.03     0.108      0.61    0.0    0.0
  outfallpump             87.89          11      0.00      0.37      0.45     7.114    141.96    0.0    0.0
  
  
  ***************************
  Link Pollutant Load Summary
  ***************************
  
  ----------------------------------
                                 COD
  Link                            kg
  ----------------------------------
  Link_01146                  42.877
  Link_01147                  58.023
  Link_01148                  72.757
  Link_01149                  83.484
  Link_01150                  97.312
  Link_01151                  70.391
  Link_01152                  66.485
  Link_01274                  16.748
  Link_01275                  31.485
  Link_01276                  67.532
  Link_01292                  23.292
  Link_01294                  96.299
  Link_01295                 110.769
  Link_01296                 125.439
  Link_01297                 160.057
  Link_01298                  16.489
  Link_01299                 191.351
  Link_01300                 206.124
  Link_01301                 220.921
  Link_01302                  16.435
  Link_01312                  20.059
  Link_01313                 262.378
  Link_01314                 259.825
  Link_01315                 260.514
  Link_01316                 267.277
  Link_01317                 280.129
  Link_01318                 295.040
  Link_01319                 310.101
  Link_01320                 364.568
  Link_01323                 251.711
  Link_01324                  18.409
  Link_01325                 283.978
  Link_01326                 298.769
  Link_01327                 193.647
  Link_01328                  25.987
  Link_01329                 223.959
  Link_01330                 219.663
  Link_01331                 215.819
  Link_01332                 195.364
  Link_01333                  18.664
  Link_01334                 228.405
  Link_01335                  19.969
  Link_01336                 262.834
  Link_01337                 152.240
  Link_01338                  18.669
  Link_01339                 127.668
  Link_01340                  13.242
  Link_01341                 126.812
  Link_01342                  18.486
  Link_01343                 149.077
  Link_01344                  27.432
  Link_01345                 180.637
  Link_01346                 192.695
  Link_01347                  45.671
  Link_01348                 178.581
  Link_01349                  27.466
  Link_01350                 190.507
  Link_01351                  17.888
  Link_01352                 212.272
  Link_01556                  19.315
  Link_01557                  36.304
  Link_01558                1594.947
  Link_01559                  40.291
  Link_01560                1580.299
  Link_01561                1644.636
  Link_01562                1660.986
  Link_01563                1676.233
  Link_01564                  15.285
  Link_01565                 130.945
  Link_01566                   9.269
  Link_01567                  18.706
  Link_01568                 155.255
  Link_01569                  37.196
  Link_01570                 179.057
  Link_01571                 135.500
  Link_01572                 210.183
  Link_01573                 152.742
  Link_01574                 136.498
  Link_01575                  19.474
  Link_01576                 101.347
  Link_01577                  66.349
  Link_01578                  50.586
  Link_01579                  18.774
  Link_01580                   7.437
  Link_01581                  12.422
  Link_01582                   9.633
  Link_01731                  30.089
  Link_01732                  51.694
  Link_01733                  71.135
  Link_01734                  19.341
  Link_01735                  22.598
  Link_01751                 142.434
  Link_01752                 156.851
  Link_01753                 187.975
  Link_01754                 203.106
  Link_01755                 219.763
  Link_01756                  16.948
  Link_01757                 262.828
  Link_01758                  18.107
  Link_01759                  17.906
  Link_01760                 300.858
  Link_01761                 312.991
  Link_01762                 325.797
  Link_01763                  19.210
  Link_01764                 353.035
  Link_01765                 371.700
  Link_01766                 377.075
  Link_01767                 471.722
  Link_01768                 464.847
  Link_01769                 459.452
  Link_01770                 453.928
  Link_01771                 447.943
  Link_01772                  37.680
  Link_01773                 445.467
  Link_01774                  40.251
  Link_01775                 223.598
  Link_01776                 206.469
  Link_01777                 192.220
  Link_01778                 237.736
  Link_01779                 155.027
  Link_01780                 347.604
  Link_01781                  78.235
  Link_01782                 441.743
  Link_01783                  18.188
  Link_01784                 433.069
  Link_01785                 430.670
  Link_01786                  68.615
  Link_01787                  39.524
  Link_01788                 465.434
  Link_01789                 462.586
  Link_01790                  23.996
  Link_01791                  24.944
  Link_01792                  22.981
  Link_01793                 466.182
  Link_01794                 468.202
  Link_01795                 471.977
  Link_01796                 476.930
  Link_01797                 481.099
  Link_01798                1030.929
  Link_01799                1018.206
  Link_01800                1043.505
  Link_01801                 516.572
  Link_01802                 951.773
  Link_01803                1005.047
  Link_01804                 816.824
  Link_01805                 802.629
  Link_01806                 788.732
  Link_01807                 774.029
  Link_01808                  21.831
  Link_01809                 740.839
  Link_01810                 713.299
  Link_01811                  14.748
  Link_01812                  59.844
  Link_01813                  50.312
  Link_01814                 671.295
  Link_01815                 664.348
  Link_01816                 653.581
  Link_01817                  16.111
  Link_01818                 639.729
  Link_01819                 603.927
  Link_01820                  41.157
  Link_01821                  32.683
  Link_01822                   7.437
  Link_01823                 282.632
  Link_01824                 278.163
  Link_01825                  70.427
  Link_01826                  73.723
  Link_01827                   4.645
  Link_01828                  81.285
  Link_01829                   7.507
  Link_01830                  90.610
  Link_01831                   4.517
  Link_01832                  97.865
  Link_01833                 100.701
  Link_01834                 107.004
  Link_01835                   4.823
  Link_01836                  65.226
  Link_01837                  21.688
  Link_01838                  45.286
  Link_01839                  59.383
  Link_01840                  54.520
  Link_01841                  49.596
  Link_01842                  37.542
  Link_01843                  27.005
  Link_01844                  22.405
  Link_02074                  18.254
  Link_02075                 158.911
  Link_02076                 157.373
  Link_02077                  33.518
  Link_02078                 179.119
  Link_02079                  20.269
  Link_02080                 211.928
  Link_02081                 225.510
  Link_02082                 239.057
  Link_02083                  20.177
  Link_02084                  18.592
  Link_02085                 502.862
  Link_02086                 519.360
  Link_02087                 529.162
  Link_02088                 538.738
  Link_02089                 548.039
  Link_02090                 560.965
  Link_02091                 547.516
  Link_02092                 534.089
  Link_02093                  18.188
  Link_02094                 489.154
  Link_02095                 475.020
  Link_02096                 513.813
  Link_02097                  25.250
  Link_02098                 103.463
  Link_02099                 499.088
  Link_02100                 484.436
  Link_02101                  71.161
  Link_02102                 500.890
  Link_02103                 461.652
  Link_02104                  39.711
  Link_02105                 350.281
  Link_02106                  23.671
  Link_02107                  15.198
  Link_02108                 322.319
  Link_02109                 306.316
  Link_02110                 390.044
  Link_02111                 268.843
  Link_02112                  23.553
  Link_02113                 195.918
  Link_02114                  65.349
  Link_02115                  60.332
  Link_02116                  55.826
  Link_02117                  51.219
  Link_02118                  46.940
  Link_02123                   7.952
  Link_02124                  12.898
  Link_02125                  17.760
  Link_02126                  22.545
  Link_02127                  42.064
  Link_02128                  36.565
  Link_02129                  56.461
  Link_02130                  30.538
  Link_02131                  27.912
  Link_02132                  24.369
  Link_02133                  17.477
  Link_02134                 200.184
  Link_02135                 204.635
  Link_02136                 216.624
  Link_02137                   8.523
  Link_02138                 251.365
  Link_02139                 246.883
  Link_02140                 242.240
  Link_02141                 237.730
  Link_02142                 233.238
  Link_02143                 221.089
  Link_02383                  15.005
  Link_02384                  15.589
  Link_02385                  25.294
  Link_02386                  32.588
  Link_02387                  72.215
  Link_02388                  86.708
  Link_02389                  25.163
  Link_02390                 101.151
  Link_02391                 140.542
  Link_02392                  48.442
  Link_02393                 201.844
  Link_05459                 127.932
  Link_05460                 289.830
  Link_05461                 362.946
  Link_05462                 447.298
  Link_05463                 467.452
  Link_05464                  55.417
  Link_05496                1562.289
  Link_05662                  81.800
  Link_05663                  17.459
  Link_05664                  65.280
  Link_05665                 379.531
  Link_05677                 251.374
  Link_05678                  20.615
  Link_05720                 937.375
  Link_05721                 698.405
  Link_05722                  23.516
  Link_05723                 136.151
  Link_05725                  27.512
  Link_05726                 493.467
  Link_05727                  16.334
  Link_05728                 503.033
  Link_05729                 516.138
  Link_05730                 386.089
  Link_05731                 272.993
  Link_05732                 264.782
  Link_05742                  32.643
  Link_05743                 163.056
  Link_05744                 252.899
  Link_05752                 356.151
  Link_05753                   6.953
  Link_05754                  32.173
  Link_05791                   8.866
  Link_05812                 265.759
  Link_05813                 168.621
  Link_05814                 128.654
  Link_05815                 167.156
  Link_05816                  32.004
  Link_05817                  43.160
  Link_05818                  12.371
  Link_05983                  42.487
  Link_05984                  27.458
  Link_06039                   4.400
  Link_07220                 185.948
  Link_07221                 200.890
  Link_07222                 149.176
  Link_07230                 164.097
  Link_07231                 178.839
  Link_07233                 383.901
  Link_07234                 398.752
  Link_07235                 190.359
  Link_07270                  38.424
  Link_07271                  61.388
  Link_07274                  25.277
  Link_07277                  84.123
  Link_07278                 108.637
  Link_07295                 115.264
  Link_07296                 132.814
  Link_07297                 171.118
  Link_07303                  18.427
  Link_07306                 102.874
  Link_07321                  13.294
  Link_07464                  29.068
  Link_07578                  27.744
  Link_07579                 444.713
  Link_07580                 407.764
  Link_07687                  27.339
  Link_07865                  12.476
  Link_08891                  20.067
  Link_08912                  41.199
  Link1_to_ChengXi          1692.757
  Link2_to_ChengXi           395.641
  Link3_to_ChengXi           411.832
  Link_to_LaoDongLu          393.803
  Pump_ChengXi1              891.933
  Pump_ChengXi2              752.022
  Pump_ChengXi3              480.746
  Pump_ChengXi4              345.341
  Pump_LaoDongLu1            166.738
  Pump_LaoDongLu2             84.413
  Pump_LaoDongLu3             39.216
  outfallpump               2202.470
  

  Analysis begun on:  Sun Sep  5 09:41:50 2021
  Analysis ended on:  Sun Sep  5 09:41:54 2021
  Total elapsed time: 00:00:04