
  EPA STORM WATER MANAGEMENT MODEL - VERSION 5.1 (Build 5.3.0.dev0)
  --------------------------------------------------------------

  WARNING 04: minimum elevation drop used for Conduit Link_01776
  WARNING 04: minimum elevation drop used for Conduit Link_01779
  WARNING 04: minimum elevation drop used for Conduit Link_07234
  WARNING 02: maximum depth increased for Node Node_06087
  
  *********************************************************
  NOTE: The summary statistics displayed in this report are
  based on results found at every computational time step,  
  not just on results from each reporting time step.
  *********************************************************
  
  ****************
  Analysis Options
  ****************
  Flow Units ............... CMS
  Process Models:
    Rainfall/Runoff ........ YES
    RDII ................... NO
    Snowmelt ............... NO
    Groundwater ............ NO
    Flow Routing ........... YES
    Ponding Allowed ........ YES
    Water Quality .......... YES
  Infiltration Method ...... HORTON
  Flow Routing Method ...... DYNWAVE
  Surcharge Method ......... EXTRAN
  Starting Date ............ 01/02/2011 00:00:00
  Ending Date .............. 01/02/2011 06:00:00
  Antecedent Dry Days ...... 0.0
  Report Time Step ......... 00:15:00
  Wet Time Step ............ 00:05:00
  Dry Time Step ............ 01:00:00
  Routing Time Step ........ 60.00 sec
  Variable Time Step ....... YES
  Maximum Trials ........... 8
  Number of Threads ........ 4
  Head Tolerance ........... 0.001500 m
  
  
  **************************        Volume         Depth
  Runoff Quantity Continuity     hectare-m            mm
  **************************     ---------       -------
  Total Precipitation ......         1.645        57.500
  Evaporation Loss .........         0.000         0.000
  Infiltration Loss ........         0.050         1.751
  Surface Runoff ...........         1.596        55.819
  Final Storage ............         0.000         0.009
  Continuity Error (%) .....        -0.138
  
  
  **************************           COD
  Runoff Quality Continuity             kg
  **************************    ----------
  Initial Buildup ..........         0.000
  Surface Buildup ..........         0.000
  Wet Deposition ...........      4325.060
  Sweeping Removal .........         0.000
  Infiltration Loss ........       131.727
  BMP Removal ..............         0.000
  Surface Runoff ...........      4198.608
  Remaining Buildup ........         0.706
  Continuity Error (%) .....        -0.138
  
  
  **************************        Volume        Volume
  Flow Routing Continuity        hectare-m      10^6 ltr
  **************************     ---------     ---------
  Dry Weather Inflow .......         0.153         1.529
  Wet Weather Inflow .......         1.596        15.964
  Groundwater Inflow .......         0.000         0.000
  RDII Inflow ..............         0.000         0.000
  External Inflow ..........         0.000         0.000
  External Outflow .........         0.000         0.000
  Flooding Loss ............         1.691        16.908
  Evaporation Loss .........         0.000         0.000
  Exfiltration Loss ........         0.000         0.000
  Initial Stored Volume ....         0.077         0.773
  Final Stored Volume ......         0.335         3.355
  Continuity Error (%) .....       -10.932
  
  
  **************************           COD
  Quality Routing Continuity            kg
  **************************    ----------
  Dry Weather Inflow .......       845.599
  Wet Weather Inflow .......      4198.599
  Groundwater Inflow .......         0.000
  RDII Inflow ..............         0.000
  External Inflow ..........         0.000
  External Outflow .........         0.000
  Flooding Loss ............      4585.840
  Exfiltration Loss ........         0.000
  Mass Reacted .............         0.000
  Initial Stored Mass ......       427.257
  Final Stored Mass ........       955.522
  Continuity Error (%) .....        -1.278
  
  
  *************************
  Highest Continuity Errors
  *************************
  Node Node_04456 (-208.42%)
  Node Node_04713 (-133.19%)
  Node Node_05331 (-74.74%)
  Node Node_04427 (-66.81%)
  Node Node_04715 (-60.38%)
  
  
  ***************************
  Time-Step Critical Elements
  ***************************
  Link Link_01778 (32.87%)
  Link Link_06039 (24.29%)
  Link Link_02129 (18.51%)
  Link Link_01292 (8.92%)
  Link Link_01302 (7.55%)
  
  
  ********************************
  Highest Flow Instability Indexes
  ********************************
  Link Link_01769 (87)
  Link Link_01558 (87)
  Link Link_01768 (77)
  Link Link_05464 (77)
  Link Link_01324 (76)
  
  
  *************************
  Routing Time Step Summary
  *************************
  Minimum Time Step           :     0.86 sec
  Average Time Step           :     5.18 sec
  Maximum Time Step           :    60.00 sec
  Percent in Steady State     :     0.00
  Average Iterations per Step :     6.65
  Percent Not Converging      :    68.33
  
  
  ***************************
  Subcatchment Runoff Summary
  ***************************
  
  ------------------------------------------------------------------------------------------------------------------------------
                            Total      Total      Total      Total     Imperv       Perv      Total       Total     Peak  Runoff
                           Precip      Runon       Evap      Infil     Runoff     Runoff     Runoff      Runoff   Runoff   Coeff
  Subcatchment                 mm         mm         mm         mm         mm         mm         mm    10^6 ltr      CMS
  ------------------------------------------------------------------------------------------------------------------------------
  2707                      57.50       0.00       0.00       1.76      14.38      41.44      55.82        0.06     0.01   0.971
  2708                      57.50       0.00       0.00       1.76      14.38      41.44      55.82        0.06     0.01   0.971
  2709                      57.50       0.00       0.00       1.76      14.38      41.44      55.82        0.06     0.01   0.971
  2710                      57.50       0.00       0.00       1.76      14.38      41.44      55.82        0.06     0.01   0.971
  2712                      57.50       0.00       0.00       1.76      14.38      41.44      55.82        0.06     0.01   0.971
  2713                      57.50       0.00       0.00       1.76      14.38      41.44      55.82        0.06     0.01   0.971
  2714                      57.50       0.00       0.00       1.76      14.38      41.44      55.82        0.06     0.01   0.971
  2715                      57.50       0.00       0.00       1.76      14.38      41.44      55.82        0.06     0.01   0.971
  2716                      57.50       0.00       0.00       1.76      14.38      41.44      55.82        0.06     0.01   0.971
  2717                      57.50       0.00       0.00       1.76      14.38      41.44      55.82        0.06     0.01   0.971
  2718                      57.50       0.00       0.00       1.76      14.38      41.44      55.82        0.06     0.01   0.971
  2719                      57.50       0.00       0.00       1.76      14.38      41.44      55.82        0.06     0.01   0.971
  2721                      57.50       0.00       0.00       1.76      14.38      41.44      55.82        0.06     0.01   0.971
  2722                      57.50       0.00       0.00       1.76      14.38      41.44      55.82        0.06     0.01   0.971
  2723                      57.50       0.00       0.00       1.76      14.38      41.44      55.82        0.06     0.01   0.971
  2724                      57.50       0.00       0.00       1.76      14.38      41.44      55.82        0.06     0.01   0.971
  2725                      57.50       0.00       0.00       1.76      14.38      41.44      55.82        0.06     0.01   0.971
  2726                      57.50       0.00       0.00       1.76      14.38      41.44      55.82        0.06     0.01   0.971
  2727                      57.50       0.00       0.00       1.76      14.38      41.44      55.82        0.06     0.01   0.971
  2728                      57.50       0.00       0.00       1.76      14.38      41.44      55.82        0.06     0.01   0.971
  2729                      57.50       0.00       0.00       1.76      14.38      41.44      55.82        0.06     0.01   0.971
  2730                      57.50       0.00       0.00       1.76      14.38      41.44      55.82        0.06     0.01   0.971
  2731                      57.50       0.00       0.00       1.76      14.38      41.44      55.82        0.06     0.01   0.971
  2732                      57.50       0.00       0.00       1.76      14.38      41.44      55.82        0.06     0.01   0.971
  2733                      57.50       0.00       0.00       1.76      14.38      41.44      55.82        0.06     0.01   0.971
  2734                      57.50       0.00       0.00       1.76      14.38      41.44      55.82        0.06     0.01   0.971
  2735                      57.50       0.00       0.00       1.76      14.38      41.44      55.82        0.06     0.01   0.971
  2736                      57.50       0.00       0.00       1.76      14.38      41.44      55.82        0.06     0.01   0.971
  2737                      57.50       0.00       0.00       1.76      14.38      41.44      55.82        0.06     0.01   0.971
  2738                      57.50       0.00       0.00       1.76      14.38      41.44      55.82        0.06     0.01   0.971
  2739                      57.50       0.00       0.00       1.76      14.38      41.44      55.82        0.06     0.01   0.971
  2740                      57.50       0.00       0.00       1.76      14.38      41.44      55.82        0.06     0.01   0.971
  2741                      57.50       0.00       0.00       1.76      14.38      41.44      55.82        0.06     0.01   0.971
  2742                      57.50       0.00       0.00       1.76      14.38      41.44      55.82        0.06     0.01   0.971
  2743                      57.50       0.00       0.00       1.76      14.38      41.44      55.82        0.06     0.01   0.971
  2744                      57.50       0.00       0.00       1.76      14.38      41.44      55.82        0.06     0.01   0.971
  2745                      57.50       0.00       0.00       1.76      14.38      41.44      55.82        0.06     0.01   0.971
  2746                      57.50       0.00       0.00       1.76      14.38      41.44      55.82        0.06     0.01   0.971
  2747                      57.50       0.00       0.00       1.76      14.38      41.44      55.82        0.06     0.01   0.971
  2748                      57.50       0.00       0.00       1.76      14.38      41.44      55.82        0.06     0.01   0.971
  2749                      57.50       0.00       0.00       1.76      14.38      41.44      55.82        0.06     0.01   0.971
  2750                      57.50       0.00       0.00       1.76      14.38      41.44      55.82        0.06     0.01   0.971
  2751                      57.50       0.00       0.00       1.76      14.38      41.44      55.82        0.06     0.01   0.971
  2752                      57.50       0.00       0.00       1.76      14.38      41.44      55.82        0.06     0.01   0.971
  2753                      57.50       0.00       0.00       1.76      14.38      41.44      55.82        0.06     0.01   0.971
  2754                      57.50       0.00       0.00       1.76      14.38      41.44      55.82        0.06     0.01   0.971
  2755                      57.50       0.00       0.00       1.76      14.38      41.44      55.82        0.06     0.01   0.971
  2756                      57.50       0.00       0.00       1.76      14.38      41.44      55.82        0.06     0.01   0.971
  2964                      57.50       0.00       0.00       1.76      14.38      41.44      55.82        0.06     0.01   0.971
  2969                      57.50       0.00       0.00       1.76      14.38      41.44      55.82        0.06     0.01   0.971
  2970                      57.50       0.00       0.00       1.76      14.38      41.44      55.82        0.06     0.01   0.971
  2974                      57.50       0.00       0.00       1.76      14.38      41.44      55.82        0.06     0.01   0.971
  2975                      57.50       0.00       0.00       1.76      14.38      41.44      55.82        0.06     0.01   0.971
  2976                      57.50       0.00       0.00       1.76      14.38      41.44      55.82        0.06     0.01   0.971
  2977                      57.50       0.00       0.00       1.76      14.38      41.44      55.82        0.06     0.01   0.971
  2978                      57.50       0.00       0.00       1.76      14.38      41.44      55.82        0.06     0.01   0.971
  2979                      57.50       0.00       0.00       1.76      14.38      41.44      55.82        0.06     0.01   0.971
  2980                      57.50       0.00       0.00       1.76      14.38      41.44      55.82        0.06     0.01   0.971
  2981                      57.50       0.00       0.00       1.76      14.38      41.44      55.82        0.06     0.01   0.971
  2982                      57.50       0.00       0.00       1.76      14.38      41.44      55.82        0.06     0.01   0.971
  2984                      57.50       0.00       0.00       1.76      14.38      41.44      55.82        0.06     0.01   0.971
  2985                      57.50       0.00       0.00       1.76      14.38      41.44      55.82        0.06     0.01   0.971
  3925                      57.50       0.00       0.00       1.76      14.38      41.44      55.82        0.06     0.01   0.971
  3926                      57.50       0.00       0.00       1.76      14.38      41.44      55.82        0.06     0.01   0.971
  3927                      57.50       0.00       0.00       1.76      14.38      41.44      55.82        0.06     0.01   0.971
  3928                      57.50       0.00       0.00       1.76      14.38      41.44      55.82        0.06     0.01   0.971
  3929                      57.50       0.00       0.00       1.76      14.38      41.44      55.82        0.06     0.01   0.971
  3930                      57.50       0.00       0.00       1.76      14.38      41.44      55.82        0.06     0.01   0.971
  3931                      57.50       0.00       0.00       1.76      14.38      41.44      55.82        0.06     0.01   0.971
  3932                      57.50       0.00       0.00       1.76      14.38      41.44      55.82        0.06     0.01   0.971
  3933                      57.50       0.00       0.00       1.76      14.38      41.44      55.82        0.06     0.01   0.971
  3934                      57.50       0.00       0.00       1.76      14.38      41.44      55.82        0.06     0.01   0.971
  3935                      57.50       0.00       0.00       1.76      14.38      41.44      55.82        0.06     0.01   0.971
  3936                      57.50       0.00       0.00       1.76      14.38      41.44      55.82        0.06     0.01   0.971
  3937                      57.50       0.00       0.00       1.76      14.38      41.44      55.82        0.06     0.01   0.971
  3938                      57.50       0.00       0.00       1.76      14.38      41.44      55.82        0.06     0.01   0.971
  3939                      57.50       0.00       0.00       1.76      14.38      41.44      55.82        0.06     0.01   0.971
  3940                      57.50       0.00       0.00       1.76      14.38      41.44      55.82        0.06     0.01   0.971
  3941                      57.50       0.00       0.00       1.76      14.38      41.44      55.82        0.06     0.01   0.971
  3942                      57.50       0.00       0.00       1.76      14.38      41.44      55.82        0.06     0.01   0.971
  3943                      57.50       0.00       0.00       1.76      14.38      41.44      55.82        0.06     0.01   0.971
  3944                      57.50       0.00       0.00       1.76      14.38      41.44      55.82        0.06     0.01   0.971
  3945                      57.50       0.00       0.00       1.76      14.38      41.44      55.82        0.06     0.01   0.971
  3946                      57.50       0.00       0.00       1.76      14.38      41.44      55.82        0.06     0.01   0.971
  3947                      57.50       0.00       0.00       1.76      14.38      41.44      55.82        0.06     0.01   0.971
  3948                      57.50       0.00       0.00       1.76      14.38      41.44      55.82        0.06     0.01   0.971
  3949                      57.50       0.00       0.00       1.76      14.38      41.44      55.82        0.06     0.01   0.971
  3950                      57.50       0.00       0.00       1.76      14.38      41.44      55.82        0.06     0.01   0.971
  3951                      57.50       0.00       0.00       1.76      14.38      41.44      55.82        0.06     0.01   0.971
  3952                      57.50       0.00       0.00       1.76      14.38      41.44      55.82        0.06     0.01   0.971
  3953                      57.50       0.00       0.00       1.76      14.38      41.44      55.82        0.06     0.01   0.971
  3954                      57.50       0.00       0.00       1.76      14.38      41.44      55.82        0.06     0.01   0.971
  3955                      57.50       0.00       0.00       1.76      14.38      41.44      55.82        0.06     0.01   0.971
  3956                      57.50       0.00       0.00       1.76      14.38      41.44      55.82        0.06     0.01   0.971
  4032                      57.50       0.00       0.00       1.76      14.38      41.44      55.82        0.06     0.01   0.971
  4033                      57.50       0.00       0.00       1.76      14.38      41.44      55.82        0.06     0.01   0.971
  4041                      57.50       0.00       0.00       1.76      14.38      41.44      55.82        0.06     0.01   0.971
  4051                      57.50       0.00       0.00       1.76      14.38      41.44      55.82        0.06     0.01   0.971
  4055                      57.50       0.00       0.00       1.76      14.38      41.44      55.82        0.06     0.01   0.971
  4056                      57.50       0.00       0.00       1.76      14.38      41.44      55.82        0.06     0.01   0.971
  4058                      57.50       0.00       0.00       1.76      14.38      41.44      55.82        0.06     0.01   0.971
  4385                      57.50       0.00       0.00       1.76      14.38      41.44      55.82        0.06     0.01   0.971
  4386                      57.50       0.00       0.00       1.76      14.38      41.44      55.82        0.06     0.01   0.971
  4387                      57.50       0.00       0.00       1.76      14.38      41.44      55.82        0.06     0.01   0.971
  4388                      57.50       0.00       0.00       1.76      14.38      41.44      55.82        0.06     0.01   0.971
  4389                      57.50       0.00       0.00       1.76      14.38      41.44      55.82        0.06     0.01   0.971
  4390                      57.50       0.00       0.00       1.76      14.38      41.44      55.82        0.06     0.01   0.971
  4391                      57.50       0.00       0.00       1.76      14.38      41.44      55.82        0.06     0.01   0.971
  4392                      57.50       0.00       0.00       1.76      14.38      41.44      55.82        0.06     0.01   0.971
  4393                      57.50       0.00       0.00       1.76      14.38      41.44      55.82        0.06     0.01   0.971
  4394                      57.50       0.00       0.00       1.76      14.38      41.44      55.82        0.06     0.01   0.971
  4395                      57.50       0.00       0.00       1.76      14.38      41.44      55.82        0.06     0.01   0.971
  4396                      57.50       0.00       0.00       1.76      14.38      41.44      55.82        0.06     0.01   0.971
  4397                      57.50       0.00       0.00       1.76      14.38      41.44      55.82        0.06     0.01   0.971
  4398                      57.50       0.00       0.00       1.76      14.38      41.44      55.82        0.06     0.01   0.971
  4429                      57.50       0.00       0.00       1.76      14.38      41.44      55.82        0.06     0.01   0.971
  4430                      57.50       0.00       0.00       1.76      14.38      41.44      55.82        0.06     0.01   0.971
  4431                      57.50       0.00       0.00       1.76      14.38      41.44      55.82        0.06     0.01   0.971
  4432                      57.50       0.00       0.00       1.76      14.38      41.44      55.82        0.06     0.01   0.971
  4433                      57.50       0.00       0.00       1.76      14.38      41.44      55.82        0.06     0.01   0.971
  4434                      57.50       0.00       0.00       1.76      14.38      41.44      55.82        0.06     0.01   0.971
  4435                      57.50       0.00       0.00       1.76      14.38      41.44      55.82        0.06     0.01   0.971
  4436                      57.50       0.00       0.00       1.76      14.38      41.44      55.82        0.06     0.01   0.971
  4437                      57.50       0.00       0.00       1.76      14.38      41.44      55.82        0.06     0.01   0.971
  4438                      57.50       0.00       0.00       1.76      14.38      41.44      55.82        0.06     0.01   0.971
  4439                      57.50       0.00       0.00       1.76      14.38      41.44      55.82        0.06     0.01   0.971
  4440                      57.50       0.00       0.00       1.76      14.38      41.44      55.82        0.06     0.01   0.971
  4441                      57.50       0.00       0.00       1.76      14.38      41.44      55.82        0.06     0.01   0.971
  4442                      57.50       0.00       0.00       1.76      14.38      41.44      55.82        0.06     0.01   0.971
  4443                      57.50       0.00       0.00       1.76      14.38      41.44      55.82        0.06     0.01   0.971
  4444                      57.50       0.00       0.00       1.76      14.38      41.44      55.82        0.06     0.01   0.971
  4445                      57.50       0.00       0.00       1.76      14.38      41.44      55.82        0.06     0.01   0.971
  4446                      57.50       0.00       0.00       1.76      14.38      41.44      55.82        0.06     0.01   0.971
  4447                      57.50       0.00       0.00       1.76      14.38      41.44      55.82        0.06     0.01   0.971
  4448                      57.50       0.00       0.00       1.76      14.38      41.44      55.82        0.06     0.01   0.971
  4449                      57.50       0.00       0.00       1.76      14.38      41.44      55.82        0.06     0.01   0.971
  4450                      57.50       0.00       0.00       1.76      14.38      41.44      55.82        0.06     0.01   0.971
  4451                      57.50       0.00       0.00       1.76      14.38      41.44      55.82        0.06     0.01   0.971
  4452                      57.50       0.00       0.00       1.76      14.38      41.44      55.82        0.06     0.01   0.971
  4453                      57.50       0.00       0.00       1.76      14.38      41.44      55.82        0.06     0.01   0.971
  4454                      57.50       0.00       0.00       1.76      14.38      41.44      55.82        0.06     0.01   0.971
  4462                      57.50       0.00       0.00       1.76      14.38      41.44      55.82        0.06     0.01   0.971
  4463                      57.50       0.00       0.00       1.76      14.38      41.44      55.82        0.06     0.01   0.971
  4563                      57.50       0.00       0.00       1.76      14.38      41.44      55.82        0.06     0.01   0.971
  4564                      57.50       0.00       0.00       1.76      14.38      41.44      55.82        0.06     0.01   0.971
  4565                      57.50       0.00       0.00       1.76      14.38      41.44      55.82        0.06     0.01   0.971
  4566                      57.50       0.00       0.00       1.76      14.38      41.44      55.82        0.06     0.01   0.971
  4567                      57.50       0.00       0.00       1.76      14.38      41.44      55.82        0.06     0.01   0.971
  4568                      57.50       0.00       0.00       1.76      14.38      41.44      55.82        0.06     0.01   0.971
  4569                      57.50       0.00       0.00       1.76      14.38      41.44      55.82        0.06     0.01   0.971
  4570                      57.50       0.00       0.00       1.76      14.38      41.44      55.82        0.06     0.01   0.971
  4571                      57.50       0.00       0.00       1.76      14.38      41.44      55.82        0.06     0.01   0.971
  4572                      57.50       0.00       0.00       1.76      14.38      41.44      55.82        0.06     0.01   0.971
  4573                      57.50       0.00       0.00       1.76      14.38      41.44      55.82        0.06     0.01   0.971
  4574                      57.50       0.00       0.00       1.76      14.38      41.44      55.82        0.06     0.01   0.971
  4575                      57.50       0.00       0.00       1.76      14.38      41.44      55.82        0.06     0.01   0.971
  4576                      57.50       0.00       0.00       1.76      14.38      41.44      55.82        0.06     0.01   0.971
  4577                      57.50       0.00       0.00       1.76      14.38      41.44      55.82        0.06     0.01   0.971
  4578                      57.50       0.00       0.00       1.76      14.38      41.44      55.82        0.06     0.01   0.971
  4579                      57.50       0.00       0.00       1.76      14.38      41.44      55.82        0.06     0.01   0.971
  4580                      57.50       0.00       0.00       1.76      14.38      41.44      55.82        0.06     0.01   0.971
  4581                      57.50       0.00       0.00       1.76      14.38      41.44      55.82        0.06     0.01   0.971
  4624                      57.50       0.00       0.00       1.76      14.38      41.44      55.82        0.06     0.01   0.971
  4625                      57.50       0.00       0.00       1.76      14.38      41.44      55.82        0.06     0.01   0.971
  4644                      57.50       0.00       0.00       1.76      14.38      41.44      55.82        0.06     0.01   0.971
  4645                      57.50       0.00       0.00       1.76      14.38      41.44      55.82        0.06     0.01   0.971
  4646                      57.50       0.00       0.00       1.76      14.38      41.44      55.82        0.06     0.01   0.971
  4679                      57.50       0.00       0.00       1.76      14.38      41.44      55.82        0.06     0.01   0.971
  4680                      57.50       0.00       0.00       1.76      14.38      41.44      55.82        0.06     0.01   0.971
  4681                      57.50       0.00       0.00       1.76      14.38      41.44      55.82        0.06     0.01   0.971
  4682                      57.50       0.00       0.00       1.76      14.38      41.44      55.82        0.06     0.01   0.971
  4683                      57.50       0.00       0.00       1.76      14.38      41.44      55.82        0.06     0.01   0.971
  4711                      57.50       0.00       0.00       1.76      14.38      41.44      55.82        0.06     0.01   0.971
  4712                      57.50       0.00       0.00       1.76      14.38      41.44      55.82        0.06     0.01   0.971
  4713                      57.50       0.00       0.00       1.76      14.38      41.44      55.82        0.06     0.01   0.971
  4714                      57.50       0.00       0.00       1.76      14.38      41.44      55.82        0.06     0.01   0.971
  4715                      57.50       0.00       0.00       1.76      14.38      41.44      55.82        0.06     0.01   0.971
  4716                      57.50       0.00       0.00       1.76      14.38      41.44      55.82        0.06     0.01   0.971
  4717                      57.50       0.00       0.00       1.76      14.38      41.44      55.82        0.06     0.01   0.971
  4718                      57.50       0.00       0.00       1.76      14.38      41.44      55.82        0.06     0.01   0.971
  4722                      57.50       0.00       0.00       1.76      14.38      41.44      55.82        0.06     0.01   0.971
  4760                      57.50       0.00       0.00       1.76      14.38      41.44      55.82        0.06     0.01   0.971
  4761                      57.50       0.00       0.00       1.76      14.38      41.44      55.82        0.06     0.01   0.971
  4765                      57.50       0.00       0.00       1.76      14.38      41.44      55.82        0.06     0.01   0.971
  4766                      57.50       0.00       0.00       1.76      14.38      41.44      55.82        0.06     0.01   0.971
  4767                      57.50       0.00       0.00       1.76      14.38      41.44      55.82        0.06     0.01   0.971
  4768                      57.50       0.00       0.00       1.76      14.38      41.44      55.82        0.06     0.01   0.971
  4769                      57.50       0.00       0.00       1.76      14.38      41.44      55.82        0.06     0.01   0.971
  4855                      57.50       0.00       0.00       1.76      14.38      41.44      55.82        0.06     0.01   0.971
  4856                      57.50       0.00       0.00       1.76      14.38      41.44      55.82        0.06     0.01   0.971
  5284                      57.50       0.00       0.00       1.76      14.38      41.44      55.82        0.06     0.01   0.971
  5285                      57.50       0.00       0.00       1.76      14.38      41.44      55.82        0.06     0.01   0.971
  5286                      57.50       0.00       0.00       1.76      14.38      41.44      55.82        0.06     0.01   0.971
  5287                      57.50       0.00       0.00       1.76      14.38      41.44      55.82        0.06     0.01   0.971
  5288                      57.50       0.00       0.00       1.76      14.38      41.44      55.82        0.06     0.01   0.971
  5289                      57.50       0.00       0.00       1.76      14.38      41.44      55.82        0.06     0.01   0.971
  5290                      57.50       0.00       0.00       1.76      14.38      41.44      55.82        0.06     0.01   0.971
  5291                      57.50       0.00       0.00       1.76      14.38      41.44      55.82        0.06     0.01   0.971
  5292                      57.50       0.00       0.00       1.76      14.38      41.44      55.82        0.06     0.01   0.971
  5293                      57.50       0.00       0.00       1.76      14.38      41.44      55.82        0.06     0.01   0.971
  5294                      57.50       0.00       0.00       1.76      14.38      41.44      55.82        0.06     0.01   0.971
  5295                      57.50       0.00       0.00       1.76      14.38      41.44      55.82        0.06     0.01   0.971
  5296                      57.50       0.00       0.00       1.76      14.38      41.44      55.82        0.06     0.01   0.971
  5297                      57.50       0.00       0.00       1.76      14.38      41.44      55.82        0.06     0.01   0.971
  5298                      57.50       0.00       0.00       1.76      14.38      41.44      55.82        0.06     0.01   0.971
  5299                      57.50       0.00       0.00       1.76      14.38      41.44      55.82        0.06     0.01   0.971
  5300                      57.50       0.00       0.00       1.76      14.38      41.44      55.82        0.06     0.01   0.971
  5301                      57.50       0.00       0.00       1.76      14.38      41.44      55.82        0.06     0.01   0.971
  5302                      57.50       0.00       0.00       1.76      14.38      41.44      55.82        0.06     0.01   0.971
  5303                      57.50       0.00       0.00       1.76      14.38      41.44      55.82        0.06     0.01   0.971
  5304                      57.50       0.00       0.00       1.76      14.38      41.44      55.82        0.06     0.01   0.971
  5305                      57.50       0.00       0.00       1.76      14.38      41.44      55.82        0.06     0.01   0.971
  5306                      57.50       0.00       0.00       1.76      14.38      41.44      55.82        0.06     0.01   0.971
  5307                      57.50       0.00       0.00       1.76      14.38      41.44      55.82        0.06     0.01   0.971
  5308                      57.50       0.00       0.00       1.76      14.38      41.44      55.82        0.06     0.01   0.971
  5309                      57.50       0.00       0.00       1.76      14.38      41.44      55.82        0.06     0.01   0.971
  5310                      57.50       0.00       0.00       1.76      14.38      41.44      55.82        0.06     0.01   0.971
  5311                      57.50       0.00       0.00       1.76      14.38      41.44      55.82        0.06     0.01   0.971
  5312                      57.50       0.00       0.00       1.76      14.38      41.44      55.82        0.06     0.01   0.971
  5313                      57.50       0.00       0.00       1.76      14.38      41.44      55.82        0.06     0.01   0.971
  5314                      57.50       0.00       0.00       1.76      14.38      41.44      55.82        0.06     0.01   0.971
  5315                      57.50       0.00       0.00       1.76      14.38      41.44      55.82        0.06     0.01   0.971
  5316                      57.50       0.00       0.00       1.76      14.38      41.44      55.82        0.06     0.01   0.971
  5317                      57.50       0.00       0.00       1.76      14.38      41.44      55.82        0.06     0.01   0.971
  5318                      57.50       0.00       0.00       1.76      14.38      41.44      55.82        0.06     0.01   0.971
  5319                      57.50       0.00       0.00       1.76      14.38      41.44      55.82        0.06     0.01   0.971
  5320                      57.50       0.00       0.00       1.76      14.38      41.44      55.82        0.06     0.01   0.971
  5321                      57.50       0.00       0.00       1.76      14.38      41.44      55.82        0.06     0.01   0.971
  5322                      57.50       0.00       0.00       1.76      14.38      41.44      55.82        0.06     0.01   0.971
  5323                      57.50       0.00       0.00       1.76      14.38      41.44      55.82        0.06     0.01   0.971
  5324                      57.50       0.00       0.00       1.76      14.38      41.44      55.82        0.06     0.01   0.971
  5325                      57.50       0.00       0.00       1.76      14.38      41.44      55.82        0.06     0.01   0.971
  5326                      57.50       0.00       0.00       1.76      14.38      41.44      55.82        0.06     0.01   0.971
  5327                      57.50       0.00       0.00       1.76      14.38      41.44      55.82        0.06     0.01   0.971
  5328                      57.50       0.00       0.00       1.76      14.38      41.44      55.82        0.06     0.01   0.971
  5329                      57.50       0.00       0.00       1.76      14.38      41.44      55.82        0.06     0.01   0.971
  5330                      57.50       0.00       0.00       1.76      14.38      41.44      55.82        0.06     0.01   0.971
  5333                      57.50       0.00       0.00       1.76      14.38      41.44      55.82        0.06     0.01   0.971
  5334                      57.50       0.00       0.00       1.76      14.38      41.44      55.82        0.06     0.01   0.971
  6040                      57.50       0.00       0.00       1.76      14.38      41.44      55.82        0.06     0.01   0.971
  6041                      57.50       0.00       0.00       1.76      14.38      41.44      55.82        0.06     0.01   0.971
  6162                      57.50       0.00       0.00       1.76      14.38      41.44      55.82        0.06     0.01   0.971
  7207                      57.50       0.00       0.00       1.76      14.38      41.44      55.82        0.06     0.01   0.971
  7208                      57.50       0.00       0.00       1.76      14.38      41.44      55.82        0.06     0.01   0.971
  7213                      57.50       0.00       0.00       1.76      14.38      41.44      55.82        0.06     0.01   0.971
  7214                      57.50       0.00       0.00       1.76      14.38      41.44      55.82        0.06     0.01   0.971
  7219                      57.50       0.00       0.00       1.76      14.38      41.44      55.82        0.06     0.01   0.971
  7220                      57.50       0.00       0.00       1.76      14.38      41.44      55.82        0.06     0.01   0.971
  7221                      57.50       0.00       0.00       1.76      14.38      41.44      55.82        0.06     0.01   0.971
  7225                      57.50       0.00       0.00       1.76      14.38      41.44      55.82        0.06     0.01   0.971
  7229                      57.50       0.00       0.00       1.76      14.38      41.44      55.82        0.06     0.01   0.971
  7231                      57.50       0.00       0.00       1.76      14.38      41.44      55.82        0.06     0.01   0.971
  7268                      57.50       0.00       0.00       1.76      14.38      41.44      55.82        0.06     0.01   0.971
  7269                      57.50       0.00       0.00       1.76      14.38      41.44      55.82        0.06     0.01   0.971
  7271                      57.50       0.00       0.00       1.76      14.38      41.44      55.82        0.06     0.01   0.971
  7272                      57.50       0.00       0.00       1.76      14.38      41.44      55.82        0.06     0.01   0.971
  7273                      57.50       0.00       0.00       1.76      14.38      41.44      55.82        0.06     0.01   0.971
  7433                      57.50       0.00       0.00       1.76      14.38      41.44      55.82        0.06     0.01   0.971
  7434                      57.50       0.00       0.00       1.76      14.38      41.44      55.82        0.06     0.01   0.971
  7544                      57.50       0.00       0.00       1.76      14.38      41.44      55.82        0.06     0.01   0.971
  7545                      57.50       0.00       0.00       1.76      14.38      41.44      55.82        0.06     0.01   0.971
  8737                      57.50       0.00       0.00       1.76      14.38      41.44      55.82        0.06     0.01   0.971
  8818                      57.50       0.00       0.00       1.76      14.38      41.44      55.82        0.06     0.01   0.971
  9942                      57.50       0.00       0.00       1.76      14.38      41.44      55.82        0.06     0.01   0.971
  9957                      57.50       0.00       0.00       1.76      14.38      41.44      55.82        0.06     0.01   0.971
  4399                      57.50       0.00       0.00       1.69      14.37      41.49      55.86        0.02     0.00   0.972
  4400                      57.50       0.00       0.00       1.69      14.37      41.49      55.86        0.02     0.00   0.972
  4401                      57.50       0.00       0.00       1.69      14.37      41.49      55.86        0.02     0.00   0.972
  4402                      57.50       0.00       0.00       1.69      14.37      41.49      55.86        0.02     0.00   0.972
  4403                      57.50       0.00       0.00       1.69      14.37      41.49      55.86        0.02     0.00   0.972
  4404                      57.50       0.00       0.00       1.69      14.37      41.49      55.86        0.02     0.00   0.972
  4405                      57.50       0.00       0.00       1.69      14.37      41.49      55.86        0.02     0.00   0.972
  4406                      57.50       0.00       0.00       1.69      14.37      41.49      55.86        0.02     0.00   0.972
  4407                      57.50       0.00       0.00       1.69      14.37      41.49      55.86        0.02     0.00   0.972
  4408                      57.50       0.00       0.00       1.69      14.37      41.49      55.86        0.02     0.00   0.972
  4409                      57.50       0.00       0.00       1.69      14.37      41.49      55.86        0.02     0.00   0.972
  4410                      57.50       0.00       0.00       1.69      14.37      41.49      55.86        0.02     0.00   0.972
  4411                      57.50       0.00       0.00       1.69      14.37      41.49      55.86        0.02     0.00   0.972
  4412                      57.50       0.00       0.00       1.69      14.37      41.49      55.86        0.02     0.00   0.972
  4423                      57.50       0.00       0.00       1.69      14.37      41.49      55.86        0.02     0.00   0.972
  4424                      57.50       0.00       0.00       1.69      14.37      41.49      55.86        0.02     0.00   0.972
  4425                      57.50       0.00       0.00       1.69      14.37      41.49      55.86        0.02     0.00   0.972
  4426                      57.50       0.00       0.00       1.69      14.37      41.49      55.86        0.02     0.00   0.972
  4427                      57.50       0.00       0.00       1.69      14.37      41.49      55.86        0.02     0.00   0.972
  4428                      57.50       0.00       0.00       1.69      14.37      41.49      55.86        0.02     0.00   0.972
  4455                      57.50       0.00       0.00       1.69      14.37      41.49      55.86        0.02     0.00   0.972
  4456                      57.50       0.00       0.00       1.69      14.37      41.49      55.86        0.02     0.00   0.972
  4457                      57.50       0.00       0.00       1.69      14.37      41.49      55.86        0.02     0.00   0.972
  4458                      57.50       0.00       0.00       1.69      14.37      41.49      55.86        0.02     0.00   0.972
  4459                      57.50       0.00       0.00       1.69      14.37      41.49      55.86        0.02     0.00   0.972
  4460                      57.50       0.00       0.00       1.69      14.37      41.49      55.86        0.02     0.00   0.972
  4461                      57.50       0.00       0.00       1.69      14.37      41.49      55.86        0.02     0.00   0.972
  4464                      57.50       0.00       0.00       1.69      14.37      41.49      55.86        0.02     0.00   0.972
  4465                      57.50       0.00       0.00       1.69      14.37      41.49      55.86        0.02     0.00   0.972
  4466                      57.50       0.00       0.00       1.69      14.37      41.49      55.86        0.02     0.00   0.972
  4467                      57.50       0.00       0.00       1.69      14.37      41.49      55.86        0.02     0.00   0.972
  4468                      57.50       0.00       0.00       1.69      14.37      41.49      55.86        0.02     0.00   0.972
  4469                      57.50       0.00       0.00       1.69      14.37      41.49      55.86        0.02     0.00   0.972
  4470                      57.50       0.00       0.00       1.69      14.37      41.49      55.86        0.02     0.00   0.972
  4471                      57.50       0.00       0.00       1.69      14.37      41.49      55.86        0.02     0.00   0.972
  4472                      57.50       0.00       0.00       1.69      14.37      41.49      55.86        0.02     0.00   0.972
  4473                      57.50       0.00       0.00       1.69      14.37      41.49      55.86        0.02     0.00   0.972
  4474                      57.50       0.00       0.00       1.69      14.37      41.49      55.86        0.02     0.00   0.972
  4628                      57.50       0.00       0.00       1.69      14.37      41.49      55.86        0.02     0.00   0.972
  4631                      57.50       0.00       0.00       1.69      14.37      41.49      55.86        0.02     0.00   0.972
  4632                      57.50       0.00       0.00       1.69      14.37      41.49      55.86        0.02     0.00   0.972
  4633                      57.50       0.00       0.00       1.69      14.37      41.49      55.86        0.02     0.00   0.972
  4634                      57.50       0.00       0.00       1.69      14.37      41.49      55.86        0.02     0.00   0.972
  4637                      57.50       0.00       0.00       1.69      14.37      41.49      55.86        0.02     0.00   0.972
  4686                      57.50       0.00       0.00       1.69      14.37      41.49      55.86        0.02     0.00   0.972
  4687                      57.50       0.00       0.00       1.69      14.37      41.49      55.86        0.02     0.00   0.972
  4688                      57.50       0.00       0.00       1.69      14.37      41.49      55.86        0.02     0.00   0.972
  5032                      57.50       0.00       0.00       1.69      14.37      41.49      55.86        0.02     0.00   0.972
  5331                      57.50       0.00       0.00       1.69      14.37      41.49      55.86        0.02     0.00   0.972
  5332                      57.50       0.00       0.00       1.69      14.37      41.49      55.86        0.02     0.00   0.972
  5335                      57.50       0.00       0.00       1.69      14.37      41.49      55.86        0.02     0.00   0.972
  5336                      57.50       0.00       0.00       1.69      14.37      41.49      55.86        0.02     0.00   0.972
  5337                      57.50       0.00       0.00       1.69      14.37      41.49      55.86        0.02     0.00   0.972
  5338                      57.50       0.00       0.00       1.69      14.37      41.49      55.86        0.02     0.00   0.972
  5339                      57.50       0.00       0.00       1.69      14.37      41.49      55.86        0.02     0.00   0.972
  5340                      57.50       0.00       0.00       1.69      14.37      41.49      55.86        0.02     0.00   0.972
  5341                      57.50       0.00       0.00       1.69      14.37      41.49      55.86        0.02     0.00   0.972
  5342                      57.50       0.00       0.00       1.69      14.37      41.49      55.86        0.02     0.00   0.972
  5343                      57.50       0.00       0.00       1.69      14.37      41.49      55.86        0.02     0.00   0.972
  5344                      57.50       0.00       0.00       1.69      14.37      41.49      55.86        0.02     0.00   0.972
  5345                      57.50       0.00       0.00       1.69      14.37      41.49      55.86        0.02     0.00   0.972
  5346                      57.50       0.00       0.00       1.69      14.37      41.49      55.86        0.02     0.00   0.972
  5347                      57.50       0.00       0.00       1.69      14.37      41.49      55.86        0.02     0.00   0.972
  5348                      57.50       0.00       0.00       1.69      14.37      41.49      55.86        0.02     0.00   0.972
  5349                      57.50       0.00       0.00       1.69      14.37      41.49      55.86        0.02     0.00   0.972
  5350                      57.50       0.00       0.00       1.69      14.37      41.49      55.86        0.02     0.00   0.972
  6088                      57.50       0.00       0.00       1.69      14.37      41.49      55.86        0.02     0.00   0.972
  7275                      57.50       0.00       0.00       1.69      14.37      41.49      55.86        0.02     0.00   0.972
  9955                      57.50       0.00       0.00       1.69      14.37      41.49      55.86        0.02     0.00   0.972
  9956                      57.50       0.00       0.00       1.69      14.37      41.49      55.86        0.02     0.00   0.972
  
  
  ****************************
  Subcatchment Washoff Summary
  ****************************
  
  ----------------------------------
                                 COD
  Subcatchment                    kg
  ----------------------------------
  2707                        14.680
  2708                        14.680
  2709                        14.680
  2710                        14.680
  2712                        14.680
  2713                        14.680
  2714                        14.680
  2715                        14.680
  2716                        14.680
  2717                        14.680
  2718                        14.680
  2719                        14.680
  2721                        14.680
  2722                        14.680
  2723                        14.680
  2724                        14.680
  2725                        14.680
  2726                        14.680
  2727                        14.680
  2728                        14.680
  2729                        14.680
  2730                        14.680
  2731                        14.680
  2732                        14.680
  2733                        14.680
  2734                        14.680
  2735                        14.680
  2736                        14.680
  2737                        14.680
  2738                        14.680
  2739                        14.680
  2740                        14.680
  2741                        14.680
  2742                        14.680
  2743                        14.680
  2744                        14.680
  2745                        14.680
  2746                        14.680
  2747                        14.680
  2748                        14.680
  2749                        14.680
  2750                        14.680
  2751                        14.680
  2752                        14.680
  2753                        14.680
  2754                        14.680
  2755                        14.680
  2756                        14.680
  2964                        14.680
  2969                        14.680
  2970                        14.680
  2974                        14.680
  2975                        14.680
  2976                        14.680
  2977                        14.680
  2978                        14.680
  2979                        14.680
  2980                        14.680
  2981                        14.680
  2982                        14.680
  2984                        14.680
  2985                        14.680
  3925                        14.680
  3926                        14.680
  3927                        14.680
  3928                        14.680
  3929                        14.680
  3930                        14.680
  3931                        14.680
  3932                        14.680
  3933                        14.680
  3934                        14.680
  3935                        14.680
  3936                        14.680
  3937                        14.680
  3938                        14.680
  3939                        14.680
  3940                        14.680
  3941                        14.680
  3942                        14.680
  3943                        14.680
  3944                        14.680
  3945                        14.680
  3946                        14.680
  3947                        14.680
  3948                        14.680
  3949                        14.680
  3950                        14.680
  3951                        14.680
  3952                        14.680
  3953                        14.680
  3954                        14.680
  3955                        14.680
  3956                        14.680
  4032                        14.680
  4033                        14.680
  4041                        14.680
  4051                        14.680
  4055                        14.680
  4056                        14.680
  4058                        14.680
  4385                        14.680
  4386                        14.680
  4387                        14.680
  4388                        14.680
  4389                        14.680
  4390                        14.680
  4391                        14.680
  4392                        14.680
  4393                        14.680
  4394                        14.680
  4395                        14.680
  4396                        14.680
  4397                        14.680
  4398                        14.680
  4429                        14.680
  4430                        14.680
  4431                        14.680
  4432                        14.680
  4433                        14.680
  4434                        14.680
  4435                        14.680
  4436                        14.680
  4437                        14.680
  4438                        14.680
  4439                        14.680
  4440                        14.680
  4441                        14.680
  4442                        14.680
  4443                        14.680
  4444                        14.680
  4445                        14.680
  4446                        14.680
  4447                        14.680
  4448                        14.680
  4449                        14.680
  4450                        14.680
  4451                        14.680
  4452                        14.680
  4453                        14.680
  4454                        14.680
  4462                        14.680
  4463                        14.680
  4563                        14.680
  4564                        14.680
  4565                        14.680
  4566                        14.680
  4567                        14.680
  4568                        14.680
  4569                        14.680
  4570                        14.680
  4571                        14.680
  4572                        14.680
  4573                        14.680
  4574                        14.680
  4575                        14.680
  4576                        14.680
  4577                        14.680
  4578                        14.680
  4579                        14.680
  4580                        14.680
  4581                        14.680
  4624                        14.680
  4625                        14.680
  4644                        14.680
  4645                        14.680
  4646                        14.680
  4679                        14.680
  4680                        14.680
  4681                        14.680
  4682                        14.680
  4683                        14.680
  4711                        14.680
  4712                        14.680
  4713                        14.680
  4714                        14.680
  4715                        14.680
  4716                        14.680
  4717                        14.680
  4718                        14.680
  4722                        14.680
  4760                        14.680
  4761                        14.680
  4765                        14.680
  4766                        14.680
  4767                        14.680
  4768                        14.680
  4769                        14.680
  4855                        14.680
  4856                        14.680
  5284                        14.680
  5285                        14.680
  5286                        14.680
  5287                        14.680
  5288                        14.680
  5289                        14.680
  5290                        14.680
  5291                        14.680
  5292                        14.680
  5293                        14.680
  5294                        14.680
  5295                        14.680
  5296                        14.680
  5297                        14.680
  5298                        14.680
  5299                        14.680
  5300                        14.680
  5301                        14.680
  5302                        14.680
  5303                        14.680
  5304                        14.680
  5305                        14.680
  5306                        14.680
  5307                        14.680
  5308                        14.680
  5309                        14.680
  5310                        14.680
  5311                        14.680
  5312                        14.680
  5313                        14.680
  5314                        14.680
  5315                        14.680
  5316                        14.680
  5317                        14.680
  5318                        14.680
  5319                        14.680
  5320                        14.680
  5321                        14.680
  5322                        14.680
  5323                        14.680
  5324                        14.680
  5325                        14.680
  5326                        14.680
  5327                        14.680
  5328                        14.680
  5329                        14.680
  5330                        14.680
  5333                        14.680
  5334                        14.680
  6040                        14.680
  6041                        14.680
  6162                        14.680
  7207                        14.680
  7208                        14.680
  7213                        14.680
  7214                        14.680
  7219                        14.680
  7220                        14.680
  7221                        14.680
  7225                        14.680
  7229                        14.680
  7231                        14.680
  7268                        14.680
  7269                        14.680
  7271                        14.680
  7272                        14.680
  7273                        14.680
  7433                        14.680
  7434                        14.680
  7544                        14.680
  7545                        14.680
  8737                        14.680
  8818                        14.680
  9942                        14.680
  9957                        14.680
  4399                         4.408
  4400                         4.408
  4401                         4.408
  4402                         4.408
  4403                         4.408
  4404                         4.408
  4405                         4.408
  4406                         4.408
  4407                         4.408
  4408                         4.408
  4409                         4.408
  4410                         4.408
  4411                         4.408
  4412                         4.408
  4423                         4.408
  4424                         4.408
  4425                         4.408
  4426                         4.408
  4427                         4.408
  4428                         4.408
  4455                         4.408
  4456                         4.408
  4457                         4.408
  4458                         4.408
  4459                         4.408
  4460                         4.408
  4461                         4.408
  4464                         4.408
  4465                         4.408
  4466                         4.408
  4467                         4.408
  4468                         4.408
  4469                         4.408
  4470                         4.408
  4471                         4.408
  4472                         4.408
  4473                         4.408
  4474                         4.408
  4628                         4.408
  4631                         4.408
  4632                         4.408
  4633                         4.408
  4634                         4.408
  4637                         4.408
  4686                         4.408
  4687                         4.408
  4688                         4.408
  5032                         4.408
  5331                         4.408
  5332                         4.408
  5335                         4.408
  5336                         4.408
  5337                         4.408
  5338                         4.408
  5339                         4.408
  5340                         4.408
  5341                         4.408
  5342                         4.408
  5343                         4.408
  5344                         4.408
  5345                         4.408
  5346                         4.408
  5347                         4.408
  5348                         4.408
  5349                         4.408
  5350                         4.408
  6088                         4.408
  7275                         4.408
  9955                         4.408
  9956                         4.408
  ----------------------------------
  System                    4198.608
  
  
  ******************
  Node Depth Summary
  ******************
  
  ---------------------------------------------------------------------------------
                                 Average  Maximum  Maximum  Time of Max    Reported
                                   Depth    Depth      HGL   Occurrence   Max Depth
  Node                 Type       Meters   Meters   Meters  days hr:min      Meters
  ---------------------------------------------------------------------------------
  Node_02706           JUNCTION     3.70     4.87   101.71     0  02:21        0.00
  Node_02707           JUNCTION     1.33     4.31   103.74     0  05:16        0.00
  Node_02708           JUNCTION     1.17     2.81   102.57     0  05:05        0.00
  Node_02709           JUNCTION     1.28     3.17   102.80     0  05:31        0.00
  Node_02711           JUNCTION     0.97     2.84   102.75     0  05:31        0.00
  Node_02712           JUNCTION     0.98     2.77   102.67     0  05:31        0.00
  Node_02713           JUNCTION     1.02     2.71   102.56     0  05:05        0.00
  Node_02714           JUNCTION     0.63     2.17   102.57     0  05:05        0.00
  Node_02715           JUNCTION     1.04     2.58   102.38     0  05:05        0.00
  Node_02716           JUNCTION     1.10     2.94   102.66     0  05:31        0.00
  Node_02717           JUNCTION     1.15     2.95   102.59     0  05:04        0.00
  Node_02718           JUNCTION     1.17     3.21   102.81     0  05:04        0.00
  Node_02720           JUNCTION     1.19     3.09   102.65     0  05:04        0.00
  Node_02721           JUNCTION     1.49     4.72   103.97     0  04:45        0.00
  Node_02722           JUNCTION     0.15     2.21   104.01     0  05:04        0.00
  Node_02723           JUNCTION     1.43     3.50   102.79     0  05:31        0.00
  Node_02724           JUNCTION     1.28     3.02   102.43     0  04:45        0.00
  Node_02725           JUNCTION     1.31     3.17   102.53     0  04:45        0.00
  Node_02726           JUNCTION     1.39     3.42   102.68     0  05:31        0.00
  Node_02727           JUNCTION     1.49     3.41   102.53     0  05:31        0.00
  Node_02728           JUNCTION     0.81     2.54   102.62     0  05:31        0.00
  Node_02729           JUNCTION     1.53     3.21   102.27     0  05:31        0.00
  Node_02730           JUNCTION     1.55     2.91   101.94     0  05:31        0.00
  Node_02731           JUNCTION     1.96     2.90   101.49     0  05:31        0.00
  Node_02732           JUNCTION     1.52     2.19   101.21     0  01:58        0.00
  Node_02733           JUNCTION     1.54     2.30   101.31     0  05:04        0.00
  Node_02734           JUNCTION     1.84     4.94   103.65     0  05:17        0.00
  Node_02735           JUNCTION     1.75     4.81   103.62     0  05:33        0.00
  Node_02736           JUNCTION     1.96     3.85   102.46     0  05:33        0.00
  Node_02737           JUNCTION     1.97     3.82   102.44     0  05:32        0.00
  Node_02738           JUNCTION     1.82     3.29   102.06     0  05:31        0.00
  Node_02739           JUNCTION     1.73     2.97   101.84     0  05:31        0.00
  Node_02740           JUNCTION     1.76     2.93   101.77     0  05:31        0.00
  Node_02741           JUNCTION     1.42     2.51   101.81     0  05:31        0.00
  Node_02742           JUNCTION     1.80     2.95   101.76     0  05:31        0.00
  Node_02743           JUNCTION     2.25     3.37   101.74     0  05:17        0.00
  Node_02744           JUNCTION     1.41     2.41   101.75     0  05:16        0.00
  Node_02745           JUNCTION     2.00     3.11   101.73     0  05:17        0.00
  Node_02746           JUNCTION     1.92     3.01   101.71     0  05:17        0.00
  Node_02747           JUNCTION     0.73     1.36   101.71     0  05:17        0.00
  Node_02748           JUNCTION     0.66     1.26   101.71     0  05:17        0.00
  Node_02749           JUNCTION     1.97     3.06   101.70     0  02:29        0.00
  Node_02750           JUNCTION     2.00     3.10   101.71     0  02:50        0.00
  Node_02751           JUNCTION     2.01     3.12   101.71     0  02:20        0.00
  Node_02752           JUNCTION     2.05     3.17   101.71     0  02:20        0.00
  Node_02753           JUNCTION     2.11     3.24   101.71     0  02:20        0.00
  Node_02754           JUNCTION     2.22     3.40   101.71     0  02:20        0.00
  Node_02755           JUNCTION     3.15     4.31   101.71     0  02:21        0.00
  Node_02963           JUNCTION     0.96     2.80   102.71     0  04:45        0.00
  Node_02968           JUNCTION     0.84     1.71   101.83     0  05:31        0.00
  Node_02969           JUNCTION     1.05     1.87   101.75     0  05:16        0.00
  Node_02973           JUNCTION     2.67     3.82   101.71     0  02:20        0.00
  Node_02974           JUNCTION     3.26     4.49   101.62     0  02:37        0.00
  Node_02975           JUNCTION     3.25     4.49   101.62     0  02:20        0.00
  Node_02976           JUNCTION     3.21     4.47   101.66     0  02:20        0.00
  Node_02977           JUNCTION     3.10     4.40   101.73     0  02:20        0.00
  Node_02978           JUNCTION     2.94     4.26   101.79     0  02:20        0.00
  Node_02979           JUNCTION     3.26     4.47   101.58     0  02:20        0.00
  Node_02980           JUNCTION     3.28     4.46   101.55     0  02:31        0.00
  Node_02981           JUNCTION     3.39     4.56   101.51     0  02:54        0.00
  Node_02983           JUNCTION     0.82     1.79   101.91     0  05:32        0.00
  Node_02984           JUNCTION     3.44     4.73   101.71     0  02:20        0.00
  Node_03924           JUNCTION     0.53     1.00   101.82     0  02:03        0.00
  Node_03925           JUNCTION     1.03     2.07   102.44     0  04:45        0.00
  Node_03926           JUNCTION     0.26     0.96   102.43     0  04:32        0.00
  Node_03927           JUNCTION     1.02     2.07   102.45     0  04:38        0.00
  Node_03928           JUNCTION     1.04     2.12   102.46     0  05:31        0.00
  Node_03929           JUNCTION     1.06     2.14   102.45     0  04:32        0.00
  Node_03930           JUNCTION     1.10     2.13   102.39     0  02:53        0.00
  Node_03931           JUNCTION     1.09     2.19   102.43     0  05:16        0.00
  Node_03932           JUNCTION     1.15     2.16   102.32     0  02:56        0.00
  Node_03933           JUNCTION     1.16     2.13   102.25     0  02:53        0.00
  Node_03934           JUNCTION     0.61     1.40   102.26     0  02:36        0.00
  Node_03935           JUNCTION     1.24     2.17   102.15     0  02:55        0.00
  Node_03936           JUNCTION     1.26     2.13   102.06     0  05:04        0.00
  Node_03937           JUNCTION     1.37     1.90   102.06     0  05:03        0.00
  Node_03938           JUNCTION     1.97     3.25   102.44     0  02:46        0.00
  Node_03939           JUNCTION     2.08     3.39   102.43     0  02:59        0.00
  Node_03940           JUNCTION     2.15     3.47   102.40     0  02:30        0.00
  Node_03941           JUNCTION     2.24     3.53   102.34     0  02:19        0.00
  Node_03942           JUNCTION     2.26     3.54   102.29     0  03:07        0.00
  Node_03943           JUNCTION     2.35     3.58   102.19     0  01:51        0.00
  Node_03944           JUNCTION     2.45     3.69   102.17     0  01:51        0.00
  Node_03945           JUNCTION     2.52     3.78   102.20     0  01:51        0.00
  Node_03946           JUNCTION     2.59     3.90   102.26     0  05:04        0.00
  Node_03947           JUNCTION     3.01     4.60   102.49     0  05:04        0.00
  Node_03948           JUNCTION     3.03     4.75   102.60     0  05:04        0.00
  Node_03949           JUNCTION     3.17     4.65   102.35     0  02:44        0.00
  Node_03950           JUNCTION     3.08     4.58   102.35     0  02:58        0.00
  Node_03951           JUNCTION     3.14     4.66   102.35     0  02:33        0.00
  Node_03952           JUNCTION     3.22     4.75   102.34     0  02:20        0.00
  Node_03953           JUNCTION     3.20     4.75   102.32     0  02:20        0.00
  Node_03954           JUNCTION     4.15     5.67   102.25     0  02:31        0.00
  Node_03955           JUNCTION     3.18     4.66   102.15     0  02:20        0.00
  Node_04031           JUNCTION     0.50     1.03   102.26     0  02:17        0.00
  Node_04032           JUNCTION     2.58     3.93   102.28     0  02:47        0.00
  Node_04040           JUNCTION     0.97     1.73   102.28     0  02:31        0.00
  Node_04050           JUNCTION     0.56     1.89   102.86     0  05:04        0.00
  Node_04054           JUNCTION     0.45     1.31   102.45     0  04:32        0.00
  Node_04055           JUNCTION     0.68     1.51   102.32     0  02:53        0.00
  Node_04057           JUNCTION     0.90     1.60   101.91     0  02:15        0.00
  Node_04384           JUNCTION     2.97     4.31   101.89     0  02:20        0.00
  Node_04385           JUNCTION     2.66     4.00   101.91     0  02:20        0.00
  Node_04386           JUNCTION     2.64     3.98   101.92     0  02:20        0.00
  Node_04387           JUNCTION     2.62     3.95   101.91     0  02:20        0.00
  Node_04388           JUNCTION     2.59     3.92   101.92     0  02:20        0.00
  Node_04389           JUNCTION     0.86     1.56   101.92     0  02:20        0.00
  Node_04390           JUNCTION     2.58     3.90   101.92     0  02:20        0.00
  Node_04391           JUNCTION     2.54     3.86   101.92     0  02:20        0.00
  Node_04392           JUNCTION     2.65     3.97   101.93     0  02:20        0.00
  Node_04393           JUNCTION     2.51     3.80   101.91     0  02:20        0.00
  Node_04394           JUNCTION     1.33     2.27   101.92     0  02:20        0.00
  Node_04395           JUNCTION     2.47     3.76   101.91     0  02:20        0.00
  Node_04396           JUNCTION     2.43     3.71   101.91     0  02:20        0.00
  Node_04397           JUNCTION     1.14     2.00   101.90     0  02:20        0.00
  Node_04428           JUNCTION     2.43     3.69   101.91     0  02:53        0.00
  Node_04429           JUNCTION     2.40     3.65   101.90     0  02:45        0.00
  Node_04430           JUNCTION     2.37     3.62   101.90     0  02:41        0.00
  Node_04431           JUNCTION     2.13     3.32   101.89     0  02:43        0.00
  Node_04432           JUNCTION     2.04     3.21   101.89     0  02:51        0.00
  Node_04433           JUNCTION     1.86     3.00   101.88     0  02:21        0.00
  Node_04434           JUNCTION     2.14     3.28   101.87     0  02:33        0.00
  Node_04435           JUNCTION     1.97     3.08   101.86     0  02:39        0.00
  Node_04436           JUNCTION     2.36     3.45   101.85     0  02:48        0.00
  Node_04437           JUNCTION     2.48     3.53   101.82     0  02:39        0.00
  Node_04438           JUNCTION     2.77     3.82   101.83     0  03:12        0.00
  Node_04439           JUNCTION     1.82     2.86   101.84     0  02:22        0.00
  Node_04440           JUNCTION     1.80     2.83   101.84     0  03:13        0.00
  Node_04441           JUNCTION     1.54     2.51   101.84     0  02:46        0.00
  Node_04442           JUNCTION     1.86     2.88   101.85     0  03:02        0.00
  Node_04443           JUNCTION     1.71     2.71   101.85     0  02:43        0.00
  Node_04444           JUNCTION     1.70     2.67   101.85     0  02:45        0.00
  Node_04445           JUNCTION     1.62     2.59   101.86     0  02:34        0.00
  Node_04446           JUNCTION     1.58     2.53   101.86     0  02:37        0.00
  Node_04447           JUNCTION     1.51     2.43   101.87     0  02:24        0.00
  Node_04448           JUNCTION     1.52     2.43   101.88     0  02:50        0.00
  Node_04449           JUNCTION     1.52     2.44   101.89     0  02:44        0.00
  Node_04450           JUNCTION     1.67     2.59   101.91     0  02:20        0.00
  Node_04451           JUNCTION     1.47     2.38   101.92     0  02:28        0.00
  Node_04452           JUNCTION     1.23     2.10   101.92     0  02:57        0.00
  Node_04453           JUNCTION     0.95     1.70   101.92     0  02:26        0.00
  Node_04461           JUNCTION     1.42     2.29   101.91     0  02:18        0.00
  Node_04462           JUNCTION     1.41     2.28   101.93     0  03:13        0.00
  Node_04562           JUNCTION     1.44     2.46   102.05     0  01:59        0.00
  Node_04563           JUNCTION     1.79     2.92   102.04     0  01:59        0.00
  Node_04564           JUNCTION     1.59     2.67   102.05     0  01:59        0.00
  Node_04565           JUNCTION     1.61     2.70   102.06     0  01:59        0.00
  Node_04566           JUNCTION     1.76     2.86   102.05     0  01:59        0.00
  Node_04567           JUNCTION     1.72     2.82   102.04     0  02:19        0.00
  Node_04568           JUNCTION     1.73     2.83   102.02     0  02:22        0.00
  Node_04569           JUNCTION     1.90     3.04   102.01     0  02:50        0.00
  Node_04570           JUNCTION     1.35     2.28   102.01     0  03:05        0.00
  Node_04571           JUNCTION     1.90     2.99   101.92     0  01:59        0.00
  Node_04572           JUNCTION     3.30     4.51   102.04     0  05:04        0.00
  Node_04573           JUNCTION     2.98     4.13   101.97     0  02:42        0.00
  Node_04574           JUNCTION     2.97     4.38   102.68     0  05:04        0.00
  Node_04575           JUNCTION     3.47     4.66   101.98     0  02:34        0.00
  Node_04576           JUNCTION     2.10     3.33   101.98     0  02:58        0.00
  Node_04577           JUNCTION     2.15     3.39   101.97     0  02:49        0.00
  Node_04578           JUNCTION     2.20     3.45   101.96     0  02:25        0.00
  Node_04579           JUNCTION     2.26     3.53   101.94     0  02:59        0.00
  Node_04580           JUNCTION     1.22     1.98   101.76     0  02:15        0.00
  Node_04623           JUNCTION     1.30     2.25   101.91     0  02:20        0.00
  Node_04624           JUNCTION     1.45     2.38   101.84     0  02:17        0.00
  Node_04643           JUNCTION     1.16     1.99   101.89     0  02:35        0.00
  Node_04644           JUNCTION     1.19     2.01   101.85     0  02:29        0.00
  Node_04645           JUNCTION     1.37     2.05   101.65     0  01:58        0.00
  Node_04678           JUNCTION     1.27     2.18   101.91     0  02:57        0.00
  Node_04679           JUNCTION     0.94     1.73   101.91     0  02:20        0.00
  Node_04680           JUNCTION     2.77     4.10   101.87     0  02:20        0.00
  Node_04681           JUNCTION     2.80     4.13   101.85     0  02:20        0.00
  Node_04682           JUNCTION     0.47     1.67   102.68     0  05:04        0.00
  Node_04710           JUNCTION     0.87     2.09   102.08     0  04:40        0.00
  Node_04711           JUNCTION     0.88     2.30   102.29     0  04:39        0.00
  Node_04712           JUNCTION     0.87     2.61   102.62     0  05:16        0.00
  Node_04713           JUNCTION     0.83     2.58   102.63     0  01:56        0.00
  Node_04714           JUNCTION     0.85     2.60   102.65     0  01:56        0.00
  Node_04715           JUNCTION     0.81     2.52   102.61     0  01:57        0.00
  Node_04716           JUNCTION     0.80     2.46   102.59     0  01:56        0.00
  Node_04717           JUNCTION     0.71     2.04   102.34     0  05:16        0.00
  Node_04721           JUNCTION     0.93     1.63   101.98     0  05:04        0.00
  Node_04759           JUNCTION     1.03     2.20   102.38     0  05:04        0.00
  Node_04760           JUNCTION     1.37     2.11   101.57     0  02:17        0.00
  Node_04764           JUNCTION     1.08     1.59   101.51     0  01:57        0.00
  Node_04765           JUNCTION     0.83     1.50   101.92     0  02:34        0.00
  Node_04766           JUNCTION     1.35     2.23   102.00     0  02:36        0.00
  Node_04767           JUNCTION     1.32     2.24   102.07     0  01:59        0.00
  Node_04768           JUNCTION     1.42     2.35   102.01     0  01:59        0.00
  Node_04854           JUNCTION     0.78     2.27   102.71     0  04:45        0.00
  Node_04855           JUNCTION     1.35     2.05   101.98     0  02:58        0.00
  Node_05283           JUNCTION     2.38     3.66   102.28     0  05:16        0.00
  Node_05284           JUNCTION     2.35     3.61   102.27     0  05:16        0.00
  Node_05285           JUNCTION     2.28     3.47   102.22     0  01:51        0.00
  Node_05286           JUNCTION     2.24     3.42   102.22     0  01:51        0.00
  Node_05287           JUNCTION     2.22     3.42   102.27     0  02:17        0.00
  Node_05288           JUNCTION     2.21     3.41   102.28     0  01:51        0.00
  Node_05289           JUNCTION     1.69     2.70   102.22     0  01:51        0.00
  Node_05290           JUNCTION     2.20     3.40   102.29     0  01:51        0.00
  Node_05291           JUNCTION     1.99     3.19   102.39     0  01:51        0.00
  Node_05292           JUNCTION     1.96     3.17   102.41     0  01:52        0.00
  Node_05293           JUNCTION     1.95     3.16   102.42     0  01:52        0.00
  Node_05294           JUNCTION     1.91     3.12   102.43     0  01:52        0.00
  Node_05295           JUNCTION     1.95     3.16   102.43     0  01:52        0.00
  Node_05296           JUNCTION     1.92     3.13   102.45     0  01:52        0.00
  Node_05297           JUNCTION     1.72     2.78   102.29     0  03:16        0.00
  Node_05298           JUNCTION     1.86     3.06   102.45     0  01:52        0.00
  Node_05299           JUNCTION     1.85     3.06   102.46     0  01:52        0.00
  Node_05300           JUNCTION     1.82     2.99   102.44     0  01:52        0.00
  Node_05301           JUNCTION     1.78     2.93   102.42     0  01:52        0.00
  Node_05302           JUNCTION     1.78     2.93   102.43     0  02:52        0.00
  Node_05303           JUNCTION     1.74     2.88   102.43     0  01:52        0.00
[...]
  Link_05462                  4.23      4.23      4.25      0.99         0.06
  Link_05463                  4.31      4.31      4.33      0.01         0.02
  Link_05464                  4.45      4.45      4.45      0.01         0.79
  Link_05496                  5.23      5.23      5.26      0.04         0.07
  Link_05662                  3.98      3.98      4.00      0.16         0.10
  Link_05663                  4.09      4.09      4.23      0.02         0.01
  Link_05664                  4.66      4.66      4.68      0.01         0.03
  Link_05665                  5.21      5.26      5.22      3.18         2.82
  Link_05677                  4.67      4.68      4.69      1.29         0.33
  Link_05678                  2.89      2.91      3.00      0.09         0.03
  Link_05720                  4.79      4.79      4.84      0.01         0.03
  Link_05721                  4.59      4.59      4.62      0.01         0.02
  Link_05722                  4.14      4.14      4.14      0.01         0.01
  Link_05723                  2.94      2.94      2.95      0.01         0.02
  Link_05725                  2.46      2.50      2.70      0.07         0.06
  Link_05726                  4.37      4.37      4.40      0.01         0.01
  Link_05727                  4.37      4.37      4.37      0.01         0.06
  Link_05728                  4.22      4.22      4.23      0.01         0.01
  Link_05729                  4.12      4.12      4.12      1.08         1.36
  Link_05730                  3.09      3.09      3.09      0.01         0.01
  Link_05731                  3.56      3.57      3.56      1.14         1.60
  Link_05732                  3.07      3.07      3.09      0.01         0.01
  Link_05742                  4.11      4.11      4.12      0.01         0.01
  Link_05743                  4.33      4.33      4.34      0.01         0.01
  Link_05744                  4.53      4.53      4.62      0.01         0.01
  Link_05752                  4.08      4.08      4.08      2.23         0.01
  Link_05753                  2.84      2.85      2.85      0.02         0.62
  Link_05754                  2.52      2.52      2.73      0.02         0.01
  Link_05791                  2.95      2.95      3.07      0.01         0.01
  Link_05812                  4.37      4.37      4.41      0.01         0.01
  Link_05813                  4.30      4.30      4.31      0.01         0.01
  Link_05814                  4.25      4.25      4.27      0.01         0.01
  Link_05815                  4.24      4.24      4.25      0.01         0.01
  Link_05816                  2.78      2.78      2.83      0.12         0.07
  Link_05817                  2.83      2.83      2.85      0.12         0.06
  Link_05818                  2.82      2.82      2.82      0.02         0.01
  Link_05983                  4.06      4.06      4.07      0.01         0.01
  Link_05984                  4.03      4.03      4.03      0.01         0.01
  Link_06039                  0.03      0.04      0.08      0.01         0.03
  Link_07220                  4.02      4.02      4.04      0.06         0.07
  Link_07221                  4.04      4.04      4.04      1.10         1.41
  Link_07222                  4.04      4.04      4.06      0.02         0.07
  Link_07230                  4.06      4.06      4.08      0.02         0.05
  Link_07231                  4.08      4.08      4.08      0.03         0.16
  Link_07233                  4.13      4.14      4.13      2.40         2.17
  Link_07234                  4.14      4.14      4.14      3.49         3.13
  Link_07235                  4.16      4.16      4.18      0.75         0.59
  Link_07270                  2.22      2.22      3.85      0.05         0.03
  Link_07271                  3.85      3.85      3.98      0.07         0.08
  Link_07274                  2.48      2.53      2.59      0.07         0.18
  Link_07277                  3.98      3.98      3.99      0.02         0.07
  Link_07278                  3.99      3.99      3.99      0.08         0.05
  Link_07295                  3.98      3.99      3.99      0.04         0.07
  Link_07296                  3.95      3.99      3.96      0.09         0.10
  Link_07297                  3.96      3.96      4.02      1.08         1.04
  Link_07303                  4.00      4.00      4.00      0.06         0.25
  Link_07306                  3.98      3.98      4.00      0.02         0.03
  Link_07321                  1.40      1.42      1.52      0.06         0.04
  Link_07464                  4.30      4.30      4.30      0.01         0.02
  Link_07578                  4.07      4.07      4.07      0.01         0.01
  Link_07579                  4.09      4.09      4.10      0.01         0.01
  Link_07580                  4.08      4.08      4.09      0.01         0.01
  Link_07687                  4.36      4.36      4.37      0.01         0.01
  Link_07865                  2.84      2.84      2.85      0.05         0.90
  Link_08891                  4.04      4.04      4.10      0.01         0.01
  Link_08912                  4.11      4.11      4.22      0.01         0.01
  Link1_to_ChengXi            5.38      5.38      5.52      0.01         0.01
  Link2_to_ChengXi            5.27      5.51      5.35      3.14         2.80
  Link3_to_ChengXi            4.14      4.14      4.16      0.99         1.00
  Link_to_LaoDongLu           3.09      3.09      3.10      0.01         0.01
  
  
  ***************
  Pumping Summary
  ***************
  
  ---------------------------------------------------------------------------------------------------------
                                                  Min       Avg       Max     Total     Power    % Time Off
                        Percent   Number of      Flow      Flow      Flow    Volume     Usage    Pump Curve
  Pump                 Utilized   Start-Ups       CMS       CMS       CMS  10^6 ltr     Kw-hr    Low   High
  ---------------------------------------------------------------------------------------------------------
  Pump_ChengXi1            0.00           0      0.00      0.00      0.00     0.000      0.00    0.0    0.0
  Pump_ChengXi2            0.00           0      0.00      0.00      0.00     0.000      0.00    0.0    0.0
  Pump_ChengXi3            0.00           0      0.00      0.00      0.00     0.000      0.00    0.0    0.0
  Pump_ChengXi4            0.00           0      0.00      0.00      0.00     0.000      0.00    0.0    0.0
  Pump_LaoDongLu1        100.00           0      0.00      0.03      0.03     0.600      5.07    0.0    0.0
  Pump_LaoDongLu2          0.00           0      0.00      0.00      0.00     0.000      0.00    0.0    0.0
  Pump_LaoDongLu3          0.00           0      0.00      0.00      0.00     0.000      0.00    0.0    0.0
  outfallpump              0.00           0      0.00      0.00      0.00     0.000      0.00    0.0    0.0
  
  
  ***************************
  Link Pollutant Load Summary
  ***************************
  
  ----------------------------------
                                 COD
  Link                            kg
  ----------------------------------
  Link_01146                  42.102
  Link_01147                  56.751
  Link_01148                  71.279
  Link_01149                  82.430
  Link_01150                  96.662
  Link_01151                  90.640
  Link_01152                  81.364
  Link_01274                 126.867
  Link_01275                  51.645
  Link_01276                 206.395
  Link_01292                 112.323
  Link_01294                 114.351
  Link_01295                 126.516
  Link_01296                 138.096
  Link_01297                 171.639
  Link_01298                  18.147
  Link_01299                 202.312
  Link_01300                 232.615
  Link_01301                 231.928
  Link_01302                  22.355
  Link_01312                  22.943
  Link_01313                 158.838
  Link_01314                 154.884
  Link_01315                 160.506
  Link_01316                 141.712
  Link_01317                 146.749
  Link_01318                 162.392
  Link_01319                 178.341
  Link_01320                 226.734
  Link_01323                 187.345
  Link_01324                  19.398
  Link_01325                 216.953
  Link_01326                 231.163
  Link_01327                 108.293
  Link_01328                  27.483
  Link_01329                 161.879
  Link_01330                 140.606
  Link_01331                 127.068
  Link_01332                 142.959
  Link_01333                  18.930
  Link_01334                 172.976
  Link_01335                  39.627
  Link_01336                 218.185
  Link_01337                 103.239
  Link_01338                  18.848
  Link_01339                  81.468
  Link_01340                  13.099
  Link_01341                  85.615
  Link_01342                  18.317
  Link_01343                 112.426
  Link_01344                  26.741
  Link_01345                 151.496
  Link_01346                 165.729
  Link_01347                  48.441
  Link_01348                 157.699
  Link_01349                  26.757
  Link_01350                 170.938
  Link_01351                  19.245
  Link_01352                 195.288
  Link_01556                  22.900
  Link_01557                  46.743
  Link_01558                 629.578
  Link_01559                  50.457
  Link_01560                 594.209
  Link_01561                 607.275
  Link_01562                 619.756
  Link_01563                 633.979
  Link_01564                  15.467
  Link_01565                 114.816
  Link_01566                  10.566
  Link_01567                  18.349
  Link_01568                 144.146
  Link_01569                  42.071
  Link_01570                 170.875
  Link_01571                 129.197
  Link_01572                 219.512
  Link_01573                 145.223
  Link_01574                 131.197
  Link_01575                  20.743
  Link_01576                  97.886
  Link_01577                  65.770
  Link_01578                  49.692
  Link_01579                  18.641
  Link_01580                  32.552
  Link_01581                  35.876
  Link_01582                 117.160
  Link_01731                  24.451
  Link_01732                  44.440
  Link_01733                  64.434
  Link_01734                  19.711
  Link_01735                  23.402
  Link_01751                 143.700
  Link_01752                 173.964
  Link_01753                 205.924
  Link_01754                 220.019
  Link_01755                 361.889
  Link_01756                  32.736
  Link_01757                 502.123
  Link_01758                  68.117
  Link_01759                  52.463
  Link_01760                 320.938
  Link_01761                 354.223
  Link_01762                 343.110
  Link_01763                  20.204
  Link_01764                 374.410
  Link_01765                 403.422
  Link_01766                 415.636
  Link_01767                 727.050
  Link_01768                 741.984
  Link_01769                1173.385
  Link_01770                 717.176
  Link_01771                 692.542
  Link_01772                  34.073
  Link_01773                 672.357
  Link_01774                  42.044
  Link_01775                 154.063
  Link_01776                 139.304
  Link_01777                 142.349
  Link_01778                 875.387
  Link_01779                 114.385
  Link_01780                 179.538
  Link_01781                  56.351
  Link_01782                 620.250
  Link_01783                  18.706
  Link_01784                 593.417
  Link_01785                 580.241
  Link_01786                  67.162
  Link_01787                  39.677
  Link_01788                 531.803
  Link_01789                 517.472
  Link_01790                  25.635
  Link_01791                  22.560
  Link_01792                  20.910
  Link_01793                 465.072
  Link_01794                 451.101
  Link_01795                 437.406
  Link_01796                 423.761
  Link_01797                 410.010
  Link_01798                 638.257
  Link_01799                 626.875
  Link_01800                 650.319
  Link_01801                 348.886
  Link_01802                 565.002
  Link_01803                 612.453
  Link_01804                 440.696
  Link_01805                 424.947
  Link_01806                 410.721
  Link_01807                 396.163
  Link_01808                  23.450
  Link_01809                 369.019
  Link_01810                 344.976
  Link_01811                  21.628
  Link_01812                  58.035
  Link_01813                  50.559
  Link_01814                 341.244
  Link_01815                 346.250
  Link_01816                 355.151
  Link_01817                  16.863
  Link_01818                 359.630
  Link_01819                 310.030
  Link_01820                  59.452
  Link_01821                  31.885
  Link_01822                  60.219
  Link_01823                 263.571
  Link_01824                 258.995
  Link_01825                  81.837
  Link_01826                  83.627
  Link_01827                   6.787
  Link_01828                  89.875
  Link_01829                   8.245
  Link_01830                  98.127
  Link_01831                   5.478
  Link_01832                 105.019
  Link_01833                 115.565
  Link_01834                 117.858
  Link_01835                  44.763
  Link_01836                  63.905
  Link_01837                  54.220
  Link_01838                  80.327
  Link_01839                  61.185
  Link_01840                  55.431
  Link_01841                  51.315
  Link_01842                  36.804
  Link_01843                  33.382
  Link_01844                  25.332
  Link_02074                  19.084
  Link_02075                 138.718
  Link_02076                 128.294
  Link_02077                 115.866
  Link_02078                 138.580
  Link_02079                  27.150
  Link_02080                 161.718
  Link_02081                 175.471
  Link_02082                 189.626
  Link_02083                  41.259
  Link_02084                  49.748
  Link_02085                 367.465
  Link_02086                 394.701
  Link_02087                 411.015
  Link_02088                 426.790
  Link_02089                 442.284
  Link_02090                 421.339
  Link_02091                 409.587
  Link_02092                 397.457
  Link_02093                  18.300
  Link_02094                 357.253
  Link_02095                 344.947
  Link_02096                 416.790
  Link_02097                  25.142
  Link_02098                 127.570
  Link_02099                 404.071
  Link_02100                 390.630
  Link_02101                  75.810
  Link_02102                 412.915
  Link_02103                 375.041
  Link_02104                  36.663
  Link_02105                 281.146
  Link_02106                  21.496
  Link_02107                  15.281
  Link_02108                 256.803
  Link_02109                 241.148
  Link_02110                 366.616
  Link_02111                 250.158
  Link_02112                  23.721
  Link_02113                 178.738
  Link_02114                  64.485
  Link_02115                  57.256
  Link_02116                  58.608
  Link_02117                  50.657
  Link_02118                  48.448
  Link_02123                   9.382
  Link_02124                  16.744
  Link_02125                  20.917
  Link_02126                  22.361
  Link_02127                  47.977
  Link_02128                  43.461
  Link_02129                 186.941
  Link_02130                  38.721
  Link_02131                  47.792
  Link_02132                  37.771
  Link_02133                  70.919
  Link_02134                 183.170
  Link_02135                 186.931
  Link_02136                 198.905
  Link_02137                   9.046
  Link_02138                 233.117
  Link_02139                 228.725
  Link_02140                 224.137
  Link_02141                 219.570
  Link_02142                 214.880
  Link_02143                 203.100
  Link_02383                  15.318
  Link_02384                  15.672
  Link_02385                  25.566
  Link_02386                  32.295
  Link_02387                  69.798
  Link_02388                  83.633
  Link_02389                  25.056
  Link_02390                  98.307
  Link_02391                 135.496
  Link_02392                  47.282
  Link_02393                 191.143
  Link_05459                 126.646
  Link_05460                 317.297
  Link_05461                 388.431
  Link_05462                 644.971
  Link_05463                 479.773
  Link_05464                  74.794
  Link_05496                 583.364
  Link_05662                 118.459
  Link_05663                  24.145
  Link_05664                  74.511
  Link_05665                 242.137
  Link_05677                 150.189
  Link_05678                  31.258
  Link_05720                 551.391
  Link_05721                 332.605
  Link_05722                  24.653
  Link_05723                 124.317
  Link_05725                  40.354
  Link_05726                 351.847
  Link_05727                  16.664
  Link_05728                 369.068
  Link_05729                 427.028
  Link_05730                 363.675
  Link_05731                 255.745
  Link_05732                 246.302
  Link_05742                  31.926
  Link_05743                 139.432
  Link_05744                 204.161
  Link_05752                 470.899
  Link_05753                   8.836
  Link_05754                  36.396
  Link_05791                  10.011
  Link_05812                 203.974
  Link_05813                 137.717
  Link_05814                 110.377
  Link_05815                 156.963
  Link_05816                  55.204
  Link_05817                  61.711
  Link_05818                  20.668
  Link_05983                  42.197
  Link_05984                  27.168
  Link_06039                   5.071
  Link_07220                 181.316
  Link_07221                 469.738
  Link_07222                  77.032
  Link_07230                  90.143
  Link_07231                 102.353
  Link_07233                 265.704
  Link_07234                 369.302
  Link_07235                 169.163
  Link_07270                 153.100
  Link_07271                 111.774
  Link_07274                  80.747
  Link_07277                  90.959
  Link_07278                 153.938
  Link_07295                 117.071
  Link_07296                 129.955
  Link_07297                 191.206
  Link_07303                  39.209
  Link_07306                 168.038
  Link_07321                  25.772
  Link_07464                  28.882
  Link_07578                  29.660
  Link_07579                 359.792
  Link_07580                 332.668
  Link_07687                  27.171
  Link_07865                  37.794
  Link_08891                  20.421
  Link_08912                  41.942
  Link1_to_ChengXi           646.713
  Link2_to_ChengXi           260.899
  Link3_to_ChengXi           290.154
  Link_to_LaoDongLu          371.176
  Pump_ChengXi1                0.000
  Pump_ChengXi2                0.000
  Pump_ChengXi3                0.000
  Pump_ChengXi4                0.000
  Pump_LaoDongLu1            227.107
  Pump_LaoDongLu2              0.000
  Pump_LaoDongLu3              0.000
  outfallpump                  0.000
  

  Analysis begun on:  Sun Sep  5 11:33:22 2021
  Analysis ended on:  Sun Sep  5 11:33:24 2021
  Total elapsed time: 00:00:02