
  EPA STORM WATER MANAGEMENT MODEL - VERSION 5.1 (Build 5.3.0.dev0)
  --------------------------------------------------------------

  WARNING 04: minimum elevation drop used for Conduit Link_01776
  WARNING 04: minimum elevation drop used for Conduit Link_01779
  WARNING 04: minimum elevation drop used for Conduit Link_07234
  WARNING 02: maximum depth increased for Node Node_06087
  
  *********************************************************
  NOTE: The summary statistics displayed in this report are
  based on results found at every computational time step,  
  not just on results from each reporting time step.
  *********************************************************
  
  ****************
  Analysis Options
  ****************
  Flow Units ............... CMS
  Process Models:
    Rainfall/Runoff ........ YES
    RDII ................... NO
    Snowmelt ............... NO
    Groundwater ............ NO
    Flow Routing ........... YES
    Ponding Allowed ........ YES
    Water Quality .......... YES
  Infiltration Method ...... HORTON
  Flow Routing Method ...... DYNWAVE
  Surcharge Method ......... EXTRAN
  Starting Date ............ 01/02/2011 00:00:00
  Ending Date .............. 01/02/2011 06:00:00
  Antecedent Dry Days ...... 0.0
  Report Time Step ......... 00:15:00
  Wet Time Step ............ 00:05:00
  Dry Time Step ............ 01:00:00
  Routing Time Step ........ 60.00 sec
  Variable Time Step ....... YES
  Maximum Trials ........... 8
  Number of Threads ........ 1
  Head Tolerance ........... 0.001500 m
  
  
  **************************        Volume         Depth
  Runoff Quantity Continuity     hectare-m            mm
  **************************     ---------       -------
  Total Precipitation ......         0.736        25.750
  Evaporation Loss .........         0.000         0.000
  Infiltration Loss ........         0.050         1.733
  Surface Runoff ...........         0.688        24.053
  Final Storage ............         0.000         0.009
  Continuity Error (%) .....        -0.177
  
  
  **************************           COD
  Runoff Quality Continuity             kg
  **************************    ----------
  Initial Buildup ..........         0.000
  Surface Buildup ..........         0.000
  Wet Deposition ...........      1936.875
  Sweeping Removal .........         0.000
  Infiltration Loss ........       130.353
  BMP Removal ..............         0.000
  Surface Runoff ...........      1809.249
  Remaining Buildup ........         0.706
  Continuity Error (%) .....        -0.177
  
  
  **************************        Volume        Volume
  Flow Routing Continuity        hectare-m      10^6 ltr
  **************************     ---------     ---------
  Dry Weather Inflow .......         0.153         1.529
  Wet Weather Inflow .......         0.688         6.879
  Groundwater Inflow .......         0.000         0.000
  RDII Inflow ..............         0.000         0.000
  External Inflow ..........         0.000         0.000
  External Outflow .........         0.000         0.000
  Flooding Loss ............         0.606         6.056
  Evaporation Loss .........         0.000         0.000
  Exfiltration Loss ........         0.000         0.000
  Initial Stored Volume ....         0.077         0.773
  Final Stored Volume ......         0.265         2.654
  Continuity Error (%) .....         5.136
  
  
  **************************           COD
  Quality Routing Continuity            kg
  **************************    ----------
  Dry Weather Inflow .......       845.606
  Wet Weather Inflow .......      1809.132
  Groundwater Inflow .......         0.000
  RDII Inflow ..............         0.000
  External Inflow ..........         0.000
  External Outflow .........         0.000
  Flooding Loss ............      1966.634
  Exfiltration Loss ........         0.000
  Mass Reacted .............         0.000
  Initial Stored Mass ......       427.257
  Final Stored Mass ........       902.234
  Continuity Error (%) .....         6.915
  
  
  *************************
  Highest Continuity Errors
  *************************
  Node Node_02706 (17.39%)
  Node Node_04713 (-15.91%)
  Node Node_02711 (14.24%)
  Node Node_02712 (12.35%)
  Node Node_02755 (11.94%)
  
  
  ***************************
  Time-Step Critical Elements
  ***************************
  Link Link_02129 (57.92%)
  Link Link_01778 (37.08%)
  Link Link_01292 (3.87%)
  
  
  ********************************
  Highest Flow Instability Indexes
  ********************************
  Link Link_01558 (89)
  Link Link_01801 (82)
  Link Link_01777 (82)
  Link Link_01769 (80)
  Link Link_01800 (77)
  
  
  *************************
  Routing Time Step Summary
  *************************
  Minimum Time Step           :     5.00 sec
  Average Time Step           :     5.00 sec
  Maximum Time Step           :     5.00 sec
  Percent in Steady State     :     0.00
  Average Iterations per Step :     6.55
  Percent Not Converging      :    64.79
  
  
  ***************************
  Subcatchment Runoff Summary
  ***************************
  
  ------------------------------------------------------------------------------------------------------------------------------
                            Total      Total      Total      Total     Imperv       Perv      Total       Total     Peak  Runoff
                           Precip      Runon       Evap      Infil     Runoff     Runoff     Runoff      Runoff   Runoff   Coeff
  Subcatchment                 mm         mm         mm         mm         mm         mm         mm    10^6 ltr      CMS
  ------------------------------------------------------------------------------------------------------------------------------
  2707                      25.75       0.00       0.00       1.74       6.44      17.61      24.05        0.02     0.00   0.934
  2708                      25.75       0.00       0.00       1.74       6.44      17.61      24.05        0.02     0.00   0.934
  2709                      25.75       0.00       0.00       1.74       6.44      17.61      24.05        0.02     0.00   0.934
  2710                      25.75       0.00       0.00       1.74       6.44      17.61      24.05        0.02     0.00   0.934
  2712                      25.75       0.00       0.00       1.74       6.44      17.61      24.05        0.02     0.00   0.934
  2713                      25.75       0.00       0.00       1.74       6.44      17.61      24.05        0.02     0.00   0.934
  2714                      25.75       0.00       0.00       1.74       6.44      17.61      24.05        0.02     0.00   0.934
  2715                      25.75       0.00       0.00       1.74       6.44      17.61      24.05        0.02     0.00   0.934
  2716                      25.75       0.00       0.00       1.74       6.44      17.61      24.05        0.02     0.00   0.934
  2717                      25.75       0.00       0.00       1.74       6.44      17.61      24.05        0.02     0.00   0.934
  2718                      25.75       0.00       0.00       1.74       6.44      17.61      24.05        0.02     0.00   0.934
  2719                      25.75       0.00       0.00       1.74       6.44      17.61      24.05        0.02     0.00   0.934
  2721                      25.75       0.00       0.00       1.74       6.44      17.61      24.05        0.02     0.00   0.934
  2722                      25.75       0.00       0.00       1.74       6.44      17.61      24.05        0.02     0.00   0.934
  2723                      25.75       0.00       0.00       1.74       6.44      17.61      24.05        0.02     0.00   0.934
  2724                      25.75       0.00       0.00       1.74       6.44      17.61      24.05        0.02     0.00   0.934
  2725                      25.75       0.00       0.00       1.74       6.44      17.61      24.05        0.02     0.00   0.934
  2726                      25.75       0.00       0.00       1.74       6.44      17.61      24.05        0.02     0.00   0.934
  2727                      25.75       0.00       0.00       1.74       6.44      17.61      24.05        0.02     0.00   0.934
  2728                      25.75       0.00       0.00       1.74       6.44      17.61      24.05        0.02     0.00   0.934
  2729                      25.75       0.00       0.00       1.74       6.44      17.61      24.05        0.02     0.00   0.934
  2730                      25.75       0.00       0.00       1.74       6.44      17.61      24.05        0.02     0.00   0.934
  2731                      25.75       0.00       0.00       1.74       6.44      17.61      24.05        0.02     0.00   0.934
  2732                      25.75       0.00       0.00       1.74       6.44      17.61      24.05        0.02     0.00   0.934
  2733                      25.75       0.00       0.00       1.74       6.44      17.61      24.05        0.02     0.00   0.934
  2734                      25.75       0.00       0.00       1.74       6.44      17.61      24.05        0.02     0.00   0.934
  2735                      25.75       0.00       0.00       1.74       6.44      17.61      24.05        0.02     0.00   0.934
  2736                      25.75       0.00       0.00       1.74       6.44      17.61      24.05        0.02     0.00   0.934
  2737                      25.75       0.00       0.00       1.74       6.44      17.61      24.05        0.02     0.00   0.934
  2738                      25.75       0.00       0.00       1.74       6.44      17.61      24.05        0.02     0.00   0.934
  2739                      25.75       0.00       0.00       1.74       6.44      17.61      24.05        0.02     0.00   0.934
  2740                      25.75       0.00       0.00       1.74       6.44      17.61      24.05        0.02     0.00   0.934
  2741                      25.75       0.00       0.00       1.74       6.44      17.61      24.05        0.02     0.00   0.934
  2742                      25.75       0.00       0.00       1.74       6.44      17.61      24.05        0.02     0.00   0.934
  2743                      25.75       0.00       0.00       1.74       6.44      17.61      24.05        0.02     0.00   0.934
  2744                      25.75       0.00       0.00       1.74       6.44      17.61      24.05        0.02     0.00   0.934
  2745                      25.75       0.00       0.00       1.74       6.44      17.61      24.05        0.02     0.00   0.934
  2746                      25.75       0.00       0.00       1.74       6.44      17.61      24.05        0.02     0.00   0.934
  2747                      25.75       0.00       0.00       1.74       6.44      17.61      24.05        0.02     0.00   0.934
  2748                      25.75       0.00       0.00       1.74       6.44      17.61      24.05        0.02     0.00   0.934
  2749                      25.75       0.00       0.00       1.74       6.44      17.61      24.05        0.02     0.00   0.934
  2750                      25.75       0.00       0.00       1.74       6.44      17.61      24.05        0.02     0.00   0.934
  2751                      25.75       0.00       0.00       1.74       6.44      17.61      24.05        0.02     0.00   0.934
  2752                      25.75       0.00       0.00       1.74       6.44      17.61      24.05        0.02     0.00   0.934
  2753                      25.75       0.00       0.00       1.74       6.44      17.61      24.05        0.02     0.00   0.934
  2754                      25.75       0.00       0.00       1.74       6.44      17.61      24.05        0.02     0.00   0.934
  2755                      25.75       0.00       0.00       1.74       6.44      17.61      24.05        0.02     0.00   0.934
  2756                      25.75       0.00       0.00       1.74       6.44      17.61      24.05        0.02     0.00   0.934
  2964                      25.75       0.00       0.00       1.74       6.44      17.61      24.05        0.02     0.00   0.934
  2969                      25.75       0.00       0.00       1.74       6.44      17.61      24.05        0.02     0.00   0.934
  2970                      25.75       0.00       0.00       1.74       6.44      17.61      24.05        0.02     0.00   0.934
  2974                      25.75       0.00       0.00       1.74       6.44      17.61      24.05        0.02     0.00   0.934
  2975                      25.75       0.00       0.00       1.74       6.44      17.61      24.05        0.02     0.00   0.934
  2976                      25.75       0.00       0.00       1.74       6.44      17.61      24.05        0.02     0.00   0.934
  2977                      25.75       0.00       0.00       1.74       6.44      17.61      24.05        0.02     0.00   0.934
  2978                      25.75       0.00       0.00       1.74       6.44      17.61      24.05        0.02     0.00   0.934
  2979                      25.75       0.00       0.00       1.74       6.44      17.61      24.05        0.02     0.00   0.934
  2980                      25.75       0.00       0.00       1.74       6.44      17.61      24.05        0.02     0.00   0.934
  2981                      25.75       0.00       0.00       1.74       6.44      17.61      24.05        0.02     0.00   0.934
  2982                      25.75       0.00       0.00       1.74       6.44      17.61      24.05        0.02     0.00   0.934
  2984                      25.75       0.00       0.00       1.74       6.44      17.61      24.05        0.02     0.00   0.934
  2985                      25.75       0.00       0.00       1.74       6.44      17.61      24.05        0.02     0.00   0.934
  3925                      25.75       0.00       0.00       1.74       6.44      17.61      24.05        0.02     0.00   0.934
  3926                      25.75       0.00       0.00       1.74       6.44      17.61      24.05        0.02     0.00   0.934
  3927                      25.75       0.00       0.00       1.74       6.44      17.61      24.05        0.02     0.00   0.934
  3928                      25.75       0.00       0.00       1.74       6.44      17.61      24.05        0.02     0.00   0.934
  3929                      25.75       0.00       0.00       1.74       6.44      17.61      24.05        0.02     0.00   0.934
  3930                      25.75       0.00       0.00       1.74       6.44      17.61      24.05        0.02     0.00   0.934
  3931                      25.75       0.00       0.00       1.74       6.44      17.61      24.05        0.02     0.00   0.934
  3932                      25.75       0.00       0.00       1.74       6.44      17.61      24.05        0.02     0.00   0.934
  3933                      25.75       0.00       0.00       1.74       6.44      17.61      24.05        0.02     0.00   0.934
  3934                      25.75       0.00       0.00       1.74       6.44      17.61      24.05        0.02     0.00   0.934
  3935                      25.75       0.00       0.00       1.74       6.44      17.61      24.05        0.02     0.00   0.934
  3936                      25.75       0.00       0.00       1.74       6.44      17.61      24.05        0.02     0.00   0.934
  3937                      25.75       0.00       0.00       1.74       6.44      17.61      24.05        0.02     0.00   0.934
  3938                      25.75       0.00       0.00       1.74       6.44      17.61      24.05        0.02     0.00   0.934
  3939                      25.75       0.00       0.00       1.74       6.44      17.61      24.05        0.02     0.00   0.934
  3940                      25.75       0.00       0.00       1.74       6.44      17.61      24.05        0.02     0.00   0.934
  3941                      25.75       0.00       0.00       1.74       6.44      17.61      24.05        0.02     0.00   0.934
  3942                      25.75       0.00       0.00       1.74       6.44      17.61      24.05        0.02     0.00   0.934
  3943                      25.75       0.00       0.00       1.74       6.44      17.61      24.05        0.02     0.00   0.934
  3944                      25.75       0.00       0.00       1.74       6.44      17.61      24.05        0.02     0.00   0.934
  3945                      25.75       0.00       0.00       1.74       6.44      17.61      24.05        0.02     0.00   0.934
  3946                      25.75       0.00       0.00       1.74       6.44      17.61      24.05        0.02     0.00   0.934
  3947                      25.75       0.00       0.00       1.74       6.44      17.61      24.05        0.02     0.00   0.934
  3948                      25.75       0.00       0.00       1.74       6.44      17.61      24.05        0.02     0.00   0.934
  3949                      25.75       0.00       0.00       1.74       6.44      17.61      24.05        0.02     0.00   0.934
  3950                      25.75       0.00       0.00       1.74       6.44      17.61      24.05        0.02     0.00   0.934
  3951                      25.75       0.00       0.00       1.74       6.44      17.61      24.05        0.02     0.00   0.934
  3952                      25.75       0.00       0.00       1.74       6.44      17.61      24.05        0.02     0.00   0.934
  3953                      25.75       0.00       0.00       1.74       6.44      17.61      24.05        0.02     0.00   0.934
  3954                      25.75       0.00       0.00       1.74       6.44      17.61      24.05        0.02     0.00   0.934
  3955                      25.75       0.00       0.00       1.74       6.44      17.61      24.05        0.02     0.00   0.934
  3956                      25.75       0.00       0.00       1.74       6.44      17.61      24.05        0.02     0.00   0.934
  4032                      25.75       0.00       0.00       1.74       6.44      17.61      24.05        0.02     0.00   0.934
  4033                      25.75       0.00       0.00       1.74       6.44      17.61      24.05        0.02     0.00   0.934
  4041                      25.75       0.00       0.00       1.74       6.44      17.61      24.05        0.02     0.00   0.934
  4051                      25.75       0.00       0.00       1.74       6.44      17.61      24.05        0.02     0.00   0.934
  4055                      25.75       0.00       0.00       1.74       6.44      17.61      24.05        0.02     0.00   0.934
  4056                      25.75       0.00       0.00       1.74       6.44      17.61      24.05        0.02     0.00   0.934
  4058                      25.75       0.00       0.00       1.74       6.44      17.61      24.05        0.02     0.00   0.934
  4385                      25.75       0.00       0.00       1.74       6.44      17.61      24.05        0.02     0.00   0.934
  4386                      25.75       0.00       0.00       1.74       6.44      17.61      24.05        0.02     0.00   0.934
  4387                      25.75       0.00       0.00       1.74       6.44      17.61      24.05        0.02     0.00   0.934
  4388                      25.75       0.00       0.00       1.74       6.44      17.61      24.05        0.02     0.00   0.934
  4389                      25.75       0.00       0.00       1.74       6.44      17.61      24.05        0.02     0.00   0.934
  4390                      25.75       0.00       0.00       1.74       6.44      17.61      24.05        0.02     0.00   0.934
  4391                      25.75       0.00       0.00       1.74       6.44      17.61      24.05        0.02     0.00   0.934
  4392                      25.75       0.00       0.00       1.74       6.44      17.61      24.05        0.02     0.00   0.934
  4393                      25.75       0.00       0.00       1.74       6.44      17.61      24.05        0.02     0.00   0.934
  4394                      25.75       0.00       0.00       1.74       6.44      17.61      24.05        0.02     0.00   0.934
  4395                      25.75       0.00       0.00       1.74       6.44      17.61      24.05        0.02     0.00   0.934
  4396                      25.75       0.00       0.00       1.74       6.44      17.61      24.05        0.02     0.00   0.934
  4397                      25.75       0.00       0.00       1.74       6.44      17.61      24.05        0.02     0.00   0.934
  4398                      25.75       0.00       0.00       1.74       6.44      17.61      24.05        0.02     0.00   0.934
  4429                      25.75       0.00       0.00       1.74       6.44      17.61      24.05        0.02     0.00   0.934
  4430                      25.75       0.00       0.00       1.74       6.44      17.61      24.05        0.02     0.00   0.934
  4431                      25.75       0.00       0.00       1.74       6.44      17.61      24.05        0.02     0.00   0.934
  4432                      25.75       0.00       0.00       1.74       6.44      17.61      24.05        0.02     0.00   0.934
  4433                      25.75       0.00       0.00       1.74       6.44      17.61      24.05        0.02     0.00   0.934
  4434                      25.75       0.00       0.00       1.74       6.44      17.61      24.05        0.02     0.00   0.934
  4435                      25.75       0.00       0.00       1.74       6.44      17.61      24.05        0.02     0.00   0.934
  4436                      25.75       0.00       0.00       1.74       6.44      17.61      24.05        0.02     0.00   0.934
  4437                      25.75       0.00       0.00       1.74       6.44      17.61      24.05        0.02     0.00   0.934
  4438                      25.75       0.00       0.00       1.74       6.44      17.61      24.05        0.02     0.00   0.934
  4439                      25.75       0.00       0.00       1.74       6.44      17.61      24.05        0.02     0.00   0.934
  4440                      25.75       0.00       0.00       1.74       6.44      17.61      24.05        0.02     0.00   0.934
  4441                      25.75       0.00       0.00       1.74       6.44      17.61      24.05        0.02     0.00   0.934
  4442                      25.75       0.00       0.00       1.74       6.44      17.61      24.05        0.02     0.00   0.934
  4443                      25.75       0.00       0.00       1.74       6.44      17.61      24.05        0.02     0.00   0.934
  4444                      25.75       0.00       0.00       1.74       6.44      17.61      24.05        0.02     0.00   0.934
  4445                      25.75       0.00       0.00       1.74       6.44      17.61      24.05        0.02     0.00   0.934
  4446                      25.75       0.00       0.00       1.74       6.44      17.61      24.05        0.02     0.00   0.934
  4447                      25.75       0.00       0.00       1.74       6.44      17.61      24.05        0.02     0.00   0.934
  4448                      25.75       0.00       0.00       1.74       6.44      17.61      24.05        0.02     0.00   0.934
  4449                      25.75       0.00       0.00       1.74       6.44      17.61      24.05        0.02     0.00   0.934
  4450                      25.75       0.00       0.00       1.74       6.44      17.61      24.05        0.02     0.00   0.934
  4451                      25.75       0.00       0.00       1.74       6.44      17.61      24.05        0.02     0.00   0.934
  4452                      25.75       0.00       0.00       1.74       6.44      17.61      24.05        0.02     0.00   0.934
  4453                      25.75       0.00       0.00       1.74       6.44      17.61      24.05        0.02     0.00   0.934
  4454                      25.75       0.00       0.00       1.74       6.44      17.61      24.05        0.02     0.00   0.934
  4462                      25.75       0.00       0.00       1.74       6.44      17.61      24.05        0.02     0.00   0.934
  4463                      25.75       0.00       0.00       1.74       6.44      17.61      24.05        0.02     0.00   0.934
  4563                      25.75       0.00       0.00       1.74       6.44      17.61      24.05        0.02     0.00   0.934
  4564                      25.75       0.00       0.00       1.74       6.44      17.61      24.05        0.02     0.00   0.934
  4565                      25.75       0.00       0.00       1.74       6.44      17.61      24.05        0.02     0.00   0.934
  4566                      25.75       0.00       0.00       1.74       6.44      17.61      24.05        0.02     0.00   0.934
  4567                      25.75       0.00       0.00       1.74       6.44      17.61      24.05        0.02     0.00   0.934
  4568                      25.75       0.00       0.00       1.74       6.44      17.61      24.05        0.02     0.00   0.934
  4569                      25.75       0.00       0.00       1.74       6.44      17.61      24.05        0.02     0.00   0.934
  4570                      25.75       0.00       0.00       1.74       6.44      17.61      24.05        0.02     0.00   0.934
  4571                      25.75       0.00       0.00       1.74       6.44      17.61      24.05        0.02     0.00   0.934
  4572                      25.75       0.00       0.00       1.74       6.44      17.61      24.05        0.02     0.00   0.934
  4573                      25.75       0.00       0.00       1.74       6.44      17.61      24.05        0.02     0.00   0.934
  4574                      25.75       0.00       0.00       1.74       6.44      17.61      24.05        0.02     0.00   0.934
  4575                      25.75       0.00       0.00       1.74       6.44      17.61      24.05        0.02     0.00   0.934
  4576                      25.75       0.00       0.00       1.74       6.44      17.61      24.05        0.02     0.00   0.934
  4577                      25.75       0.00       0.00       1.74       6.44      17.61      24.05        0.02     0.00   0.934
  4578                      25.75       0.00       0.00       1.74       6.44      17.61      24.05        0.02     0.00   0.934
  4579                      25.75       0.00       0.00       1.74       6.44      17.61      24.05        0.02     0.00   0.934
  4580                      25.75       0.00       0.00       1.74       6.44      17.61      24.05        0.02     0.00   0.934
  4581                      25.75       0.00       0.00       1.74       6.44      17.61      24.05        0.02     0.00   0.934
  4624                      25.75       0.00       0.00       1.74       6.44      17.61      24.05        0.02     0.00   0.934
  4625                      25.75       0.00       0.00       1.74       6.44      17.61      24.05        0.02     0.00   0.934
  4644                      25.75       0.00       0.00       1.74       6.44      17.61      24.05        0.02     0.00   0.934
  4645                      25.75       0.00       0.00       1.74       6.44      17.61      24.05        0.02     0.00   0.934
  4646                      25.75       0.00       0.00       1.74       6.44      17.61      24.05        0.02     0.00   0.934
  4679                      25.75       0.00       0.00       1.74       6.44      17.61      24.05        0.02     0.00   0.934
  4680                      25.75       0.00       0.00       1.74       6.44      17.61      24.05        0.02     0.00   0.934
  4681                      25.75       0.00       0.00       1.74       6.44      17.61      24.05        0.02     0.00   0.934
  4682                      25.75       0.00       0.00       1.74       6.44      17.61      24.05        0.02     0.00   0.934
  4683                      25.75       0.00       0.00       1.74       6.44      17.61      24.05        0.02     0.00   0.934
  4711                      25.75       0.00       0.00       1.74       6.44      17.61      24.05        0.02     0.00   0.934
  4712                      25.75       0.00       0.00       1.74       6.44      17.61      24.05        0.02     0.00   0.934
  4713                      25.75       0.00       0.00       1.74       6.44      17.61      24.05        0.02     0.00   0.934
  4714                      25.75       0.00       0.00       1.74       6.44      17.61      24.05        0.02     0.00   0.934
  4715                      25.75       0.00       0.00       1.74       6.44      17.61      24.05        0.02     0.00   0.934
  4716                      25.75       0.00       0.00       1.74       6.44      17.61      24.05        0.02     0.00   0.934
  4717                      25.75       0.00       0.00       1.74       6.44      17.61      24.05        0.02     0.00   0.934
  4718                      25.75       0.00       0.00       1.74       6.44      17.61      24.05        0.02     0.00   0.934
  4722                      25.75       0.00       0.00       1.74       6.44      17.61      24.05        0.02     0.00   0.934
  4760                      25.75       0.00       0.00       1.74       6.44      17.61      24.05        0.02     0.00   0.934
  4761                      25.75       0.00       0.00       1.74       6.44      17.61      24.05        0.02     0.00   0.934
  4765                      25.75       0.00       0.00       1.74       6.44      17.61      24.05        0.02     0.00   0.934
  4766                      25.75       0.00       0.00       1.74       6.44      17.61      24.05        0.02     0.00   0.934
  4767                      25.75       0.00       0.00       1.74       6.44      17.61      24.05        0.02     0.00   0.934
  4768                      25.75       0.00       0.00       1.74       6.44      17.61      24.05        0.02     0.00   0.934
  4769                      25.75       0.00       0.00       1.74       6.44      17.61      24.05        0.02     0.00   0.934
  4855                      25.75       0.00       0.00       1.74       6.44      17.61      24.05        0.02     0.00   0.934
  4856                      25.75       0.00       0.00       1.74       6.44      17.61      24.05        0.02     0.00   0.934
  5284                      25.75       0.00       0.00       1.74       6.44      17.61      24.05        0.02     0.00   0.934
  5285                      25.75       0.00       0.00       1.74       6.44      17.61      24.05        0.02     0.00   0.934
  5286                      25.75       0.00       0.00       1.74       6.44      17.61      24.05        0.02     0.00   0.934
  5287                      25.75       0.00       0.00       1.74       6.44      17.61      24.05        0.02     0.00   0.934
  5288                      25.75       0.00       0.00       1.74       6.44      17.61      24.05        0.02     0.00   0.934
  5289                      25.75       0.00       0.00       1.74       6.44      17.61      24.05        0.02     0.00   0.934
  5290                      25.75       0.00       0.00       1.74       6.44      17.61      24.05        0.02     0.00   0.934
  5291                      25.75       0.00       0.00       1.74       6.44      17.61      24.05        0.02     0.00   0.934
  5292                      25.75       0.00       0.00       1.74       6.44      17.61      24.05        0.02     0.00   0.934
  5293                      25.75       0.00       0.00       1.74       6.44      17.61      24.05        0.02     0.00   0.934
  5294                      25.75       0.00       0.00       1.74       6.44      17.61      24.05        0.02     0.00   0.934
  5295                      25.75       0.00       0.00       1.74       6.44      17.61      24.05        0.02     0.00   0.934
  5296                      25.75       0.00       0.00       1.74       6.44      17.61      24.05        0.02     0.00   0.934
  5297                      25.75       0.00       0.00       1.74       6.44      17.61      24.05        0.02     0.00   0.934
  5298                      25.75       0.00       0.00       1.74       6.44      17.61      24.05        0.02     0.00   0.934
  5299                      25.75       0.00       0.00       1.74       6.44      17.61      24.05        0.02     0.00   0.934
  5300                      25.75       0.00       0.00       1.74       6.44      17.61      24.05        0.02     0.00   0.934
  5301                      25.75       0.00       0.00       1.74       6.44      17.61      24.05        0.02     0.00   0.934
  5302                      25.75       0.00       0.00       1.74       6.44      17.61      24.05        0.02     0.00   0.934
  5303                      25.75       0.00       0.00       1.74       6.44      17.61      24.05        0.02     0.00   0.934
  5304                      25.75       0.00       0.00       1.74       6.44      17.61      24.05        0.02     0.00   0.934
  5305                      25.75       0.00       0.00       1.74       6.44      17.61      24.05        0.02     0.00   0.934
  5306                      25.75       0.00       0.00       1.74       6.44      17.61      24.05        0.02     0.00   0.934
  5307                      25.75       0.00       0.00       1.74       6.44      17.61      24.05        0.02     0.00   0.934
  5308                      25.75       0.00       0.00       1.74       6.44      17.61      24.05        0.02     0.00   0.934
  5309                      25.75       0.00       0.00       1.74       6.44      17.61      24.05        0.02     0.00   0.934
  5310                      25.75       0.00       0.00       1.74       6.44      17.61      24.05        0.02     0.00   0.934
  5311                      25.75       0.00       0.00       1.74       6.44      17.61      24.05        0.02     0.00   0.934
  5312                      25.75       0.00       0.00       1.74       6.44      17.61      24.05        0.02     0.00   0.934
  5313                      25.75       0.00       0.00       1.74       6.44      17.61      24.05        0.02     0.00   0.934
  5314                      25.75       0.00       0.00       1.74       6.44      17.61      24.05        0.02     0.00   0.934
  5315                      25.75       0.00       0.00       1.74       6.44      17.61      24.05        0.02     0.00   0.934
  5316                      25.75       0.00       0.00       1.74       6.44      17.61      24.05        0.02     0.00   0.934
  5317                      25.75       0.00       0.00       1.74       6.44      17.61      24.05        0.02     0.00   0.934
  5318                      25.75       0.00       0.00       1.74       6.44      17.61      24.05        0.02     0.00   0.934
  5319                      25.75       0.00       0.00       1.74       6.44      17.61      24.05        0.02     0.00   0.934
  5320                      25.75       0.00       0.00       1.74       6.44      17.61      24.05        0.02     0.00   0.934
  5321                      25.75       0.00       0.00       1.74       6.44      17.61      24.05        0.02     0.00   0.934
  5322                      25.75       0.00       0.00       1.74       6.44      17.61      24.05        0.02     0.00   0.934
  5323                      25.75       0.00       0.00       1.74       6.44      17.61      24.05        0.02     0.00   0.934
  5324                      25.75       0.00       0.00       1.74       6.44      17.61      24.05        0.02     0.00   0.934
  5325                      25.75       0.00       0.00       1.74       6.44      17.61      24.05        0.02     0.00   0.934
  5326                      25.75       0.00       0.00       1.74       6.44      17.61      24.05        0.02     0.00   0.934
  5327                      25.75       0.00       0.00       1.74       6.44      17.61      24.05        0.02     0.00   0.934
  5328                      25.75       0.00       0.00       1.74       6.44      17.61      24.05        0.02     0.00   0.934
  5329                      25.75       0.00       0.00       1.74       6.44      17.61      24.05        0.02     0.00   0.934
  5330                      25.75       0.00       0.00       1.74       6.44      17.61      24.05        0.02     0.00   0.934
  5333                      25.75       0.00       0.00       1.74       6.44      17.61      24.05        0.02     0.00   0.934
  5334                      25.75       0.00       0.00       1.74       6.44      17.61      24.05        0.02     0.00   0.934
  6040                      25.75       0.00       0.00       1.74       6.44      17.61      24.05        0.02     0.00   0.934
  6041                      25.75       0.00       0.00       1.74       6.44      17.61      24.05        0.02     0.00   0.934
  6162                      25.75       0.00       0.00       1.74       6.44      17.61      24.05        0.02     0.00   0.934
  7207                      25.75       0.00       0.00       1.74       6.44      17.61      24.05        0.02     0.00   0.934
  7208                      25.75       0.00       0.00       1.74       6.44      17.61      24.05        0.02     0.00   0.934
  7213                      25.75       0.00       0.00       1.74       6.44      17.61      24.05        0.02     0.00   0.934
  7214                      25.75       0.00       0.00       1.74       6.44      17.61      24.05        0.02     0.00   0.934
  7219                      25.75       0.00       0.00       1.74       6.44      17.61      24.05        0.02     0.00   0.934
  7220                      25.75       0.00       0.00       1.74       6.44      17.61      24.05        0.02     0.00   0.934
  7221                      25.75       0.00       0.00       1.74       6.44      17.61      24.05        0.02     0.00   0.934
  7225                      25.75       0.00       0.00       1.74       6.44      17.61      24.05        0.02     0.00   0.934
  7229                      25.75       0.00       0.00       1.74       6.44      17.61      24.05        0.02     0.00   0.934
  7231                      25.75       0.00       0.00       1.74       6.44      17.61      24.05        0.02     0.00   0.934
  7268                      25.75       0.00       0.00       1.74       6.44      17.61      24.05        0.02     0.00   0.934
  7269                      25.75       0.00       0.00       1.74       6.44      17.61      24.05        0.02     0.00   0.934
  7271                      25.75       0.00       0.00       1.74       6.44      17.61      24.05        0.02     0.00   0.934
  7272                      25.75       0.00       0.00       1.74       6.44      17.61      24.05        0.02     0.00   0.934
  7273                      25.75       0.00       0.00       1.74       6.44      17.61      24.05        0.02     0.00   0.934
  7433                      25.75       0.00       0.00       1.74       6.44      17.61      24.05        0.02     0.00   0.934
  7434                      25.75       0.00       0.00       1.74       6.44      17.61      24.05        0.02     0.00   0.934
  7544                      25.75       0.00       0.00       1.74       6.44      17.61      24.05        0.02     0.00   0.934
  7545                      25.75       0.00       0.00       1.74       6.44      17.61      24.05        0.02     0.00   0.934
  8737                      25.75       0.00       0.00       1.74       6.44      17.61      24.05        0.02     0.00   0.934
  8818                      25.75       0.00       0.00       1.74       6.44      17.61      24.05        0.02     0.00   0.934
  9942                      25.75       0.00       0.00       1.74       6.44      17.61      24.05        0.02     0.00   0.934
  9957                      25.75       0.00       0.00       1.74       6.44      17.61      24.05        0.02     0.00   0.934
  4399                      25.75       0.00       0.00       1.68       6.44      17.66      24.10        0.01     0.00   0.936
  4400                      25.75       0.00       0.00       1.68       6.44      17.66      24.10        0.01     0.00   0.936
  4401                      25.75       0.00       0.00       1.68       6.44      17.66      24.10        0.01     0.00   0.936
  4402                      25.75       0.00       0.00       1.68       6.44      17.66      24.10        0.01     0.00   0.936
  4403                      25.75       0.00       0.00       1.68       6.44      17.66      24.10        0.01     0.00   0.936
  4404                      25.75       0.00       0.00       1.68       6.44      17.66      24.10        0.01     0.00   0.936
  4405                      25.75       0.00       0.00       1.68       6.44      17.66      24.10        0.01     0.00   0.936
  4406                      25.75       0.00       0.00       1.68       6.44      17.66      24.10        0.01     0.00   0.936
  4407                      25.75       0.00       0.00       1.68       6.44      17.66      24.10        0.01     0.00   0.936
  4408                      25.75       0.00       0.00       1.68       6.44      17.66      24.10        0.01     0.00   0.936
  4409                      25.75       0.00       0.00       1.68       6.44      17.66      24.10        0.01     0.00   0.936
  4410                      25.75       0.00       0.00       1.68       6.44      17.66      24.10        0.01     0.00   0.936
  4411                      25.75       0.00       0.00       1.68       6.44      17.66      24.10        0.01     0.00   0.936
  4412                      25.75       0.00       0.00       1.68       6.44      17.66      24.10        0.01     0.00   0.936
  4423                      25.75       0.00       0.00       1.68       6.44      17.66      24.10        0.01     0.00   0.936
  4424                      25.75       0.00       0.00       1.68       6.44      17.66      24.10        0.01     0.00   0.936
  4425                      25.75       0.00       0.00       1.68       6.44      17.66      24.10        0.01     0.00   0.936
  4426                      25.75       0.00       0.00       1.68       6.44      17.66      24.10        0.01     0.00   0.936
  4427                      25.75       0.00       0.00       1.68       6.44      17.66      24.10        0.01     0.00   0.936
  4428                      25.75       0.00       0.00       1.68       6.44      17.66      24.10        0.01     0.00   0.936
  4455                      25.75       0.00       0.00       1.68       6.44      17.66      24.10        0.01     0.00   0.936
  4456                      25.75       0.00       0.00       1.68       6.44      17.66      24.10        0.01     0.00   0.936
  4457                      25.75       0.00       0.00       1.68       6.44      17.66      24.10        0.01     0.00   0.936
  4458                      25.75       0.00       0.00       1.68       6.44      17.66      24.10        0.01     0.00   0.936
  4459                      25.75       0.00       0.00       1.68       6.44      17.66      24.10        0.01     0.00   0.936
  4460                      25.75       0.00       0.00       1.68       6.44      17.66      24.10        0.01     0.00   0.936
  4461                      25.75       0.00       0.00       1.68       6.44      17.66      24.10        0.01     0.00   0.936
  4464                      25.75       0.00       0.00       1.68       6.44      17.66      24.10        0.01     0.00   0.936
  4465                      25.75       0.00       0.00       1.68       6.44      17.66      24.10        0.01     0.00   0.936
  4466                      25.75       0.00       0.00       1.68       6.44      17.66      24.10        0.01     0.00   0.936
  4467                      25.75       0.00       0.00       1.68       6.44      17.66      24.10        0.01     0.00   0.936
  4468                      25.75       0.00       0.00       1.68       6.44      17.66      24.10        0.01     0.00   0.936
  4469                      25.75       0.00       0.00       1.68       6.44      17.66      24.10        0.01     0.00   0.936
  4470                      25.75       0.00       0.00       1.68       6.44      17.66      24.10        0.01     0.00   0.936
  4471                      25.75       0.00       0.00       1.68       6.44      17.66      24.10        0.01     0.00   0.936
  4472                      25.75       0.00       0.00       1.68       6.44      17.66      24.10        0.01     0.00   0.936
  4473                      25.75       0.00       0.00       1.68       6.44      17.66      24.10        0.01     0.00   0.936
  4474                      25.75       0.00       0.00       1.68       6.44      17.66      24.10        0.01     0.00   0.936
  4628                      25.75       0.00       0.00       1.68       6.44      17.66      24.10        0.01     0.00   0.936
  4631                      25.75       0.00       0.00       1.68       6.44      17.66      24.10        0.01     0.00   0.936
  4632                      25.75       0.00       0.00       1.68       6.44      17.66      24.10        0.01     0.00   0.936
  4633                      25.75       0.00       0.00       1.68       6.44      17.66      24.10        0.01     0.00   0.936
  4634                      25.75       0.00       0.00       1.68       6.44      17.66      24.10        0.01     0.00   0.936
  4637                      25.75       0.00       0.00       1.68       6.44      17.66      24.10        0.01     0.00   0.936
  4686                      25.75       0.00       0.00       1.68       6.44      17.66      24.10        0.01     0.00   0.936
  4687                      25.75       0.00       0.00       1.68       6.44      17.66      24.10        0.01     0.00   0.936
  4688                      25.75       0.00       0.00       1.68       6.44      17.66      24.10        0.01     0.00   0.936
  5032                      25.75       0.00       0.00       1.68       6.44      17.66      24.10        0.01     0.00   0.936
  5331                      25.75       0.00       0.00       1.68       6.44      17.66      24.10        0.01     0.00   0.936
  5332                      25.75       0.00       0.00       1.68       6.44      17.66      24.10        0.01     0.00   0.936
  5335                      25.75       0.00       0.00       1.68       6.44      17.66      24.10        0.01     0.00   0.936
  5336                      25.75       0.00       0.00       1.68       6.44      17.66      24.10        0.01     0.00   0.936
  5337                      25.75       0.00       0.00       1.68       6.44      17.66      24.10        0.01     0.00   0.936
  5338                      25.75       0.00       0.00       1.68       6.44      17.66      24.10        0.01     0.00   0.936
  5339                      25.75       0.00       0.00       1.68       6.44      17.66      24.10        0.01     0.00   0.936
  5340                      25.75       0.00       0.00       1.68       6.44      17.66      24.10        0.01     0.00   0.936
  5341                      25.75       0.00       0.00       1.68       6.44      17.66      24.10        0.01     0.00   0.936
  5342                      25.75       0.00       0.00       1.68       6.44      17.66      24.10        0.01     0.00   0.936
  5343                      25.75       0.00       0.00       1.68       6.44      17.66      24.10        0.01     0.00   0.936
  5344                      25.75       0.00       0.00       1.68       6.44      17.66      24.10        0.01     0.00   0.936
  5345                      25.75       0.00       0.00       1.68       6.44      17.66      24.10        0.01     0.00   0.936
  5346                      25.75       0.00       0.00       1.68       6.44      17.66      24.10        0.01     0.00   0.936
  5347                      25.75       0.00       0.00       1.68       6.44      17.66      24.10        0.01     0.00   0.936
  5348                      25.75       0.00       0.00       1.68       6.44      17.66      24.10        0.01     0.00   0.936
  5349                      25.75       0.00       0.00       1.68       6.44      17.66      24.10        0.01     0.00   0.936
  5350                      25.75       0.00       0.00       1.68       6.44      17.66      24.10        0.01     0.00   0.936
  6088                      25.75       0.00       0.00       1.68       6.44      17.66      24.10        0.01     0.00   0.936
  7275                      25.75       0.00       0.00       1.68       6.44      17.66      24.10        0.01     0.00   0.936
  9955                      25.75       0.00       0.00       1.68       6.44      17.66      24.10        0.01     0.00   0.936
  9956                      25.75       0.00       0.00       1.68       6.44      17.66      24.10        0.01     0.00   0.936
  
  
  ****************************
  Subcatchment Washoff Summary
  ****************************
  
  ----------------------------------
                                 COD
  Subcatchment                    kg
  ----------------------------------
  2707                         6.325
  2708                         6.325
  2709                         6.325
  2710                         6.325
  2712                         6.325
  2713                         6.325
  2714                         6.325
  2715                         6.325
  2716                         6.325
  2717                         6.325
  2718                         6.325
  2719                         6.325
  2721                         6.325
  2722                         6.325
  2723                         6.325
  2724                         6.325
  2725                         6.325
  2726                         6.325
  2727                         6.325
  2728                         6.325
  2729                         6.325
  2730                         6.325
  2731                         6.325
  2732                         6.325
  2733                         6.325
  2734                         6.325
  2735                         6.325
  2736                         6.325
  2737                         6.325
  2738                         6.325
  2739                         6.325
  2740                         6.325
  2741                         6.325
  2742                         6.325
  2743                         6.325
  2744                         6.325
  2745                         6.325
  2746                         6.325
  2747                         6.325
  2748                         6.325
  2749                         6.325
  2750                         6.325
  2751                         6.325
  2752                         6.325
  2753                         6.325
  2754                         6.325
  2755                         6.325
  2756                         6.325
  2964                         6.325
  2969                         6.325
  2970                         6.325
  2974                         6.325
  2975                         6.325
  2976                         6.325
  2977                         6.325
  2978                         6.325
  2979                         6.325
  2980                         6.325
  2981                         6.325
  2982                         6.325
  2984                         6.325
  2985                         6.325
  3925                         6.325
  3926                         6.325
  3927                         6.325
  3928                         6.325
  3929                         6.325
  3930                         6.325
  3931                         6.325
  3932                         6.325
  3933                         6.325
  3934                         6.325
  3935                         6.325
  3936                         6.325
  3937                         6.325
  3938                         6.325
  3939                         6.325
  3940                         6.325
  3941                         6.325
  3942                         6.325
  3943                         6.325
  3944                         6.325
  3945                         6.325
  3946                         6.325
  3947                         6.325
  3948                         6.325
  3949                         6.325
  3950                         6.325
  3951                         6.325
  3952                         6.325
  3953                         6.325
  3954                         6.325
  3955                         6.325
  3956                         6.325
  4032                         6.325
  4033                         6.325
  4041                         6.325
  4051                         6.325
  4055                         6.325
  4056                         6.325
  4058                         6.325
  4385                         6.325
  4386                         6.325
  4387                         6.325
  4388                         6.325
  4389                         6.325
  4390                         6.325
  4391                         6.325
  4392                         6.325
  4393                         6.325
  4394                         6.325
  4395                         6.325
  4396                         6.325
  4397                         6.325
  4398                         6.325
  4429                         6.325
  4430                         6.325
  4431                         6.325
  4432                         6.325
  4433                         6.325
  4434                         6.325
  4435                         6.325
  4436                         6.325
  4437                         6.325
  4438                         6.325
  4439                         6.325
  4440                         6.325
  4441                         6.325
  4442                         6.325
  4443                         6.325
  4444                         6.325
  4445                         6.325
  4446                         6.325
  4447                         6.325
  4448                         6.325
  4449                         6.325
  4450                         6.325
  4451                         6.325
  4452                         6.325
  4453                         6.325
  4454                         6.325
  4462                         6.325
  4463                         6.325
  4563                         6.325
  4564                         6.325
  4565                         6.325
  4566                         6.325
  4567                         6.325
  4568                         6.325
  4569                         6.325
  4570                         6.325
  4571                         6.325
  4572                         6.325
  4573                         6.325
  4574                         6.325
  4575                         6.325
  4576                         6.325
  4577                         6.325
  4578                         6.325
  4579                         6.325
  4580                         6.325
  4581                         6.325
  4624                         6.325
  4625                         6.325
  4644                         6.325
  4645                         6.325
  4646                         6.325
  4679                         6.325
  4680                         6.325
  4681                         6.325
  4682                         6.325
  4683                         6.325
  4711                         6.325
  4712                         6.325
  4713                         6.325
  4714                         6.325
  4715                         6.325
  4716                         6.325
  4717                         6.325
  4718                         6.325
  4722                         6.325
  4760                         6.325
  4761                         6.325
  4765                         6.325
  4766                         6.325
  4767                         6.325
  4768                         6.325
  4769                         6.325
  4855                         6.325
  4856                         6.325
  5284                         6.325
  5285                         6.325
  5286                         6.325
  5287                         6.325
  5288                         6.325
  5289                         6.325
  5290                         6.325
  5291                         6.325
  5292                         6.325
  5293                         6.325
  5294                         6.325
  5295                         6.325
  5296                         6.325
  5297                         6.325
  5298                         6.325
  5299                         6.325
  5300                         6.325
  5301                         6.325
  5302                         6.325
  5303                         6.325
  5304                         6.325
  5305                         6.325
  5306                         6.325
  5307                         6.325
  5308                         6.325
  5309                         6.325
  5310                         6.325
  5311                         6.325
  5312                         6.325
  5313                         6.325
  5314                         6.325
  5315                         6.325
  5316                         6.325
  5317                         6.325
  5318                         6.325
  5319                         6.325
  5320                         6.325
  5321                         6.325
  5322                         6.325
  5323                         6.325
  5324                         6.325
  5325                         6.325
  5326                         6.325
  5327                         6.325
  5328                         6.325
  5329                         6.325
  5330                         6.325
  5333                         6.325
  5334                         6.325
  6040                         6.325
  6041                         6.325
  6162                         6.325
  7207                         6.325
  7208                         6.325
  7213                         6.325
  7214                         6.325
  7219                         6.325
  7220                         6.325
  7221                         6.325
  7225                         6.325
  7229                         6.325
  7231                         6.325
  7268                         6.325
  7269                         6.325
  7271                         6.325
  7272                         6.325
  7273                         6.325
  7433                         6.325
  7434                         6.325
  7544                         6.325
  7545                         6.325
  8737                         6.325
  8818                         6.325
  9942                         6.325
  9957                         6.325
  4399                         1.902
  4400                         1.902
  4401                         1.902
  4402                         1.902
  4403                         1.902
  4404                         1.902
  4405                         1.902
  4406                         1.902
  4407                         1.902
  4408                         1.902
  4409                         1.902
  4410                         1.902
  4411                         1.902
  4412                         1.902
  4423                         1.902
  4424                         1.902
  4425                         1.902
  4426                         1.902
  4427                         1.902
  4428                         1.902
  4455                         1.902
  4456                         1.902
  4457                         1.902
  4458                         1.902
  4459                         1.902
  4460                         1.902
  4461                         1.902
  4464                         1.902
  4465                         1.902
  4466                         1.902
  4467                         1.902
  4468                         1.902
  4469                         1.902
  4470                         1.902
  4471                         1.902
  4472                         1.902
  4473                         1.902
  4474                         1.902
  4628                         1.902
  4631                         1.902
  4632                         1.902
  4633                         1.902
  4634                         1.902
  4637                         1.902
  4686                         1.902
  4687                         1.902
  4688                         1.902
  5032                         1.902
  5331                         1.902
  5332                         1.902
  5335                         1.902
  5336                         1.902
  5337                         1.902
  5338                         1.902
  5339                         1.902
  5340                         1.902
  5341                         1.902
  5342                         1.902
  5343                         1.902
  5344                         1.902
  5345                         1.902
  5346                         1.902
  5347                         1.902
  5348                         1.902
  5349                         1.902
  5350                         1.902
  6088                         1.902
  7275                         1.902
  9955                         1.902
  9956                         1.902
  ----------------------------------
  System                    1809.249
  
  
  ******************
  Node Depth Summary
  ******************
  
  ---------------------------------------------------------------------------------
                                 Average  Maximum  Maximum  Time of Max    Reported
                                   Depth    Depth      HGL   Occurrence   Max Depth
  Node                 Type       Meters   Meters   Meters  days hr:min      Meters
  ---------------------------------------------------------------------------------
  Node_02706           JUNCTION     3.55     4.68   101.52     0  02:26        0.00
  Node_02707           JUNCTION     1.20     2.17   101.60     0  02:21        0.00
  Node_02708           JUNCTION     1.04     1.96   101.71     0  02:20        0.00
  Node_02709           JUNCTION     1.15     2.15   101.78     0  02:20        0.00
  Node_02711           JUNCTION     0.83     1.86   101.77     0  02:20        0.00
  Node_02712           JUNCTION     0.84     1.85   101.75     0  02:20        0.00
  Node_02713           JUNCTION     0.88     1.85   101.70     0  02:20        0.00
  Node_02714           JUNCTION     0.52     1.31   101.71     0  02:20        0.00
  Node_02715           JUNCTION     0.90     1.84   101.65     0  02:22        0.00
  Node_02716           JUNCTION     0.96     1.88   101.59     0  02:22        0.00
  Node_02717           JUNCTION     1.02     1.92   101.55     0  02:22        0.00
  Node_02718           JUNCTION     1.04     1.98   101.58     0  02:21        0.00
  Node_02720           JUNCTION     1.06     2.03   101.60     0  02:21        0.00
  Node_02721           JUNCTION     1.36     2.37   101.62     0  02:21        0.00
  Node_02722           JUNCTION     0.13     0.16   101.96     0  03:00        0.00
  Node_02723           JUNCTION     1.30     2.31   101.60     0  02:21        0.00
  Node_02724           JUNCTION     1.16     2.15   101.57     0  02:21        0.00
  Node_02725           JUNCTION     1.19     2.16   101.53     0  02:21        0.00
  Node_02726           JUNCTION     1.28     2.22   101.49     0  02:21        0.00
  Node_02727           JUNCTION     1.38     2.31   101.44     0  02:21        0.00
  Node_02728           JUNCTION     0.72     1.36   101.44     0  02:21        0.00
  Node_02729           JUNCTION     1.43     2.33   101.39     0  02:21        0.00
  Node_02730           JUNCTION     1.45     2.30   101.33     0  02:21        0.00
  Node_02731           JUNCTION     1.87     2.66   101.25     0  02:21        0.00
  Node_02732           JUNCTION     1.44     2.19   101.21     0  02:21        0.00
  Node_02733           JUNCTION     1.45     2.24   101.25     0  02:33        0.00
  Node_02734           JUNCTION     1.75     2.57   101.28     0  02:33        0.00
  Node_02735           JUNCTION     1.65     2.47   101.28     0  02:33        0.00
  Node_02736           JUNCTION     1.85     2.69   101.30     0  02:27        0.00
  Node_02737           JUNCTION     1.85     2.70   101.32     0  03:11        0.00
  Node_02738           JUNCTION     1.70     2.59   101.36     0  02:27        0.00
  Node_02739           JUNCTION     1.60     2.52   101.39     0  02:26        0.00
  Node_02740           JUNCTION     1.63     2.56   101.40     0  02:27        0.00
  Node_02741           JUNCTION     1.29     2.11   101.40     0  02:27        0.00
  Node_02742           JUNCTION     1.66     2.62   101.42     0  02:26        0.00
  Node_02743           JUNCTION     2.10     3.07   101.44     0  02:27        0.00
  Node_02744           JUNCTION     1.27     2.10   101.45     0  02:26        0.00
  Node_02745           JUNCTION     1.85     2.84   101.46     0  02:26        0.00
  Node_02746           JUNCTION     1.77     2.78   101.47     0  02:26        0.00
  Node_02747           JUNCTION     0.62     1.11   101.47     0  02:27        0.00
  Node_02748           JUNCTION     0.56     1.03   101.48     0  02:26        0.00
  Node_02749           JUNCTION     1.82     2.85   101.49     0  02:26        0.00
  Node_02750           JUNCTION     1.85     2.89   101.49     0  02:26        0.00
  Node_02751           JUNCTION     1.86     2.91   101.50     0  02:26        0.00
  Node_02752           JUNCTION     1.90     2.97   101.51     0  02:26        0.00
  Node_02753           JUNCTION     1.96     3.04   101.51     0  02:26        0.00
  Node_02754           JUNCTION     2.07     3.20   101.52     0  02:26        0.00
  Node_02755           JUNCTION     3.00     4.12   101.52     0  02:26        0.00
  Node_02963           JUNCTION     0.84     1.65   101.56     0  02:22        0.00
  Node_02968           JUNCTION     0.74     1.26   101.38     0  02:27        0.00
  Node_02969           JUNCTION     0.92     1.57   101.45     0  02:26        0.00
  Node_02973           JUNCTION     2.52     3.63   101.52     0  02:26        0.00
  Node_02974           JUNCTION     3.13     4.37   101.50     0  02:26        0.00
  Node_02975           JUNCTION     3.13     4.37   101.51     0  02:26        0.00
  Node_02976           JUNCTION     3.08     4.32   101.51     0  02:26        0.00
  Node_02977           JUNCTION     2.95     4.21   101.54     0  02:26        0.00
  Node_02978           JUNCTION     2.78     4.05   101.58     0  02:26        0.00
  Node_02979           JUNCTION     3.14     4.37   101.48     0  02:27        0.00
  Node_02980           JUNCTION     3.16     4.39   101.47     0  02:38        0.00
  Node_02981           JUNCTION     3.28     4.51   101.46     0  02:54        0.00
  Node_02983           JUNCTION     0.72     1.23   101.35     0  02:27        0.00
  Node_02984           JUNCTION     3.30     4.54   101.52     0  02:26        0.00
  Node_03924           JUNCTION     0.42     1.00   101.82     0  02:26        0.00
  Node_03925           JUNCTION     0.81     1.64   102.01     0  02:28        0.00
  Node_03926           JUNCTION     0.10     0.54   102.01     0  02:28        0.00
  Node_03927           JUNCTION     0.79     1.63   102.01     0  02:28        0.00
  Node_03928           JUNCTION     0.82     1.66   102.00     0  02:28        0.00
  Node_03929           JUNCTION     0.84     1.69   102.00     0  02:28        0.00
  Node_03930           JUNCTION     0.88     1.74   101.99     0  02:28        0.00
  Node_03931           JUNCTION     0.87     1.75   102.00     0  02:28        0.00
  Node_03932           JUNCTION     0.93     1.82   101.98     0  02:28        0.00
  Node_03933           JUNCTION     0.95     1.84   101.96     0  02:28        0.00
  Node_03934           JUNCTION     0.43     1.10   101.96     0  02:28        0.00
  Node_03935           JUNCTION     1.05     1.96   101.94     0  02:28        0.00
  Node_03936           JUNCTION     1.08     1.99   101.92     0  02:28        0.00
  Node_03937           JUNCTION     1.32     1.73   101.89     0  02:47        0.00
  Node_03938           JUNCTION     1.77     3.06   102.25     0  02:34        0.00
  Node_03939           JUNCTION     1.89     3.21   102.25     0  02:33        0.00
  Node_03940           JUNCTION     1.97     3.32   102.25     0  03:12        0.00
  Node_03941           JUNCTION     2.06     3.43   102.24     0  02:23        0.00
  Node_03942           JUNCTION     2.09     3.47   102.22     0  02:32        0.00
  Node_03943           JUNCTION     2.20     3.58   102.19     0  02:16        0.00
  Node_03944           JUNCTION     2.30     3.69   102.17     0  02:15        0.00
  Node_03945           JUNCTION     2.37     3.78   102.20     0  02:25        0.00
  Node_03946           JUNCTION     2.43     3.86   102.22     0  02:50        0.00
  Node_03947           JUNCTION     2.83     4.33   102.22     0  02:25        0.00
  Node_03948           JUNCTION     2.84     4.37   102.22     0  02:33        0.00
  Node_03949           JUNCTION     2.98     4.51   102.21     0  02:25        0.00
  Node_03950           JUNCTION     2.89     4.43   102.20     0  02:52        0.00
  Node_03951           JUNCTION     2.94     4.48   102.17     0  02:26        0.00
  Node_03952           JUNCTION     3.02     4.55   102.14     0  02:26        0.00
  Node_03953           JUNCTION     3.00     4.52   102.10     0  02:25        0.00
  Node_03954           JUNCTION     3.95     5.44   102.02     0  02:56        0.00
  Node_03955           JUNCTION     3.00     4.45   101.94     0  02:56        0.00
  Node_04031           JUNCTION     0.40     0.99   102.22     0  02:25        0.00
  Node_04032           JUNCTION     2.41     3.87   102.23     0  02:25        0.00
  Node_04040           JUNCTION     0.84     1.65   102.19     0  02:14        0.00
  Node_04050           JUNCTION     0.44     0.98   101.95     0  02:26        0.00
  Node_04054           JUNCTION     0.26     0.86   102.00     0  02:28        0.00
  Node_04055           JUNCTION     0.50     1.16   101.97     0  02:28        0.00
  Node_04057           JUNCTION     0.75     1.58   101.89     0  02:52        0.00
  Node_04384           JUNCTION     2.80     4.07   101.65     0  02:27        0.00
  Node_04385           JUNCTION     2.48     3.75   101.66     0  02:26        0.00
  Node_04386           JUNCTION     2.46     3.73   101.67     0  02:27        0.00
  Node_04387           JUNCTION     2.44     3.71   101.68     0  02:27        0.00
  Node_04388           JUNCTION     2.42     3.68   101.68     0  02:27        0.00
  Node_04389           JUNCTION     0.73     1.32   101.69     0  02:26        0.00
  Node_04390           JUNCTION     2.40     3.67   101.69     0  02:27        0.00
  Node_04391           JUNCTION     2.37     3.63   101.69     0  02:26        0.00
  Node_04392           JUNCTION     2.48     3.74   101.70     0  02:27        0.00
  Node_04393           JUNCTION     2.33     3.59   101.70     0  02:27        0.00
  Node_04394           JUNCTION     1.18     2.06   101.70     0  02:27        0.00
  Node_04395           JUNCTION     2.30     3.55   101.70     0  02:27        0.00
  Node_04396           JUNCTION     2.26     3.50   101.70     0  02:27        0.00
  Node_04397           JUNCTION     0.99     1.81   101.70     0  02:27        0.00
  Node_04428           JUNCTION     2.25     3.49   101.70     0  02:20        0.00
  Node_04429           JUNCTION     2.23     3.46   101.71     0  02:20        0.00
  Node_04430           JUNCTION     2.20     3.42   101.70     0  02:20        0.00
  Node_04431           JUNCTION     1.96     3.13   101.70     0  02:27        0.00
  Node_04432           JUNCTION     1.87     3.02   101.69     0  02:27        0.00
  Node_04433           JUNCTION     1.70     2.81   101.69     0  02:27        0.00
  Node_04434           JUNCTION     1.98     3.10   101.69     0  02:39        0.00
  Node_04435           JUNCTION     1.81     2.91   101.69     0  02:42        0.00
  Node_04436           JUNCTION     2.20     3.28   101.68     0  02:45        0.00
  Node_04437           JUNCTION     2.33     3.38   101.67     0  03:04        0.00
  Node_04438           JUNCTION     2.62     3.67   101.68     0  02:40        0.00
  Node_04439           JUNCTION     1.67     2.71   101.69     0  02:44        0.00
  Node_04440           JUNCTION     1.65     2.68   101.69     0  02:34        0.00
  Node_04441           JUNCTION     1.39     2.36   101.69     0  02:45        0.00
  Node_04442           JUNCTION     1.71     2.73   101.70     0  02:30        0.00
  Node_04443           JUNCTION     1.56     2.57   101.70     0  03:00        0.00
  Node_04444           JUNCTION     1.54     2.54   101.71     0  02:48        0.00
  Node_04445           JUNCTION     1.47     2.45   101.72     0  03:10        0.00
  Node_04446           JUNCTION     1.43     2.39   101.73     0  02:43        0.00
  Node_04447           JUNCTION     1.36     2.31   101.76     0  02:21        0.00
  Node_04448           JUNCTION     1.37     2.31   101.76     0  02:21        0.00
  Node_04449           JUNCTION     1.37     2.32   101.78     0  02:20        0.00
  Node_04450           JUNCTION     1.52     2.47   101.79     0  02:20        0.00
  Node_04451           JUNCTION     1.32     2.26   101.81     0  02:20        0.00
  Node_04452           JUNCTION     1.08     1.99   101.81     0  02:20        0.00
  Node_04453           JUNCTION     0.82     1.59   101.81     0  02:20        0.00
  Node_04461           JUNCTION     1.27     2.20   101.81     0  02:20        0.00
  Node_04462           JUNCTION     1.26     2.17   101.82     0  02:20        0.00
  Node_04562           JUNCTION     1.26     2.46   102.05     0  02:21        0.00
  Node_04563           JUNCTION     1.61     2.92   102.04     0  02:21        0.00
  Node_04564           JUNCTION     1.41     2.66   102.04     0  02:21        0.00
  Node_04565           JUNCTION     1.43     2.67   102.03     0  02:21        0.00
  Node_04566           JUNCTION     1.57     2.83   102.02     0  02:21        0.00
  Node_04567           JUNCTION     1.53     2.78   102.00     0  02:21        0.00
  Node_04568           JUNCTION     1.55     2.80   101.98     0  02:21        0.00
  Node_04569           JUNCTION     1.71     3.00   101.97     0  02:21        0.00
  Node_04570           JUNCTION     1.18     2.23   101.96     0  02:21        0.00
  Node_04571           JUNCTION     1.73     2.99   101.92     0  02:20        0.00
  Node_04572           JUNCTION     3.12     4.40   101.93     0  02:20        0.00
  Node_04573           JUNCTION     2.80     4.10   101.94     0  02:20        0.00
  Node_04574           JUNCTION     2.83     3.63   101.93     0  02:21        0.00
  Node_04575           JUNCTION     3.29     4.61   101.93     0  02:21        0.00
  Node_04576           JUNCTION     1.92     3.24   101.89     0  02:21        0.00
  Node_04577           JUNCTION     1.97     3.26   101.85     0  02:21        0.00
  Node_04578           JUNCTION     2.02     3.30   101.81     0  02:21        0.00
  Node_04579           JUNCTION     2.09     3.35   101.76     0  02:43        0.00
  Node_04580           JUNCTION     1.09     1.97   101.75     0  02:21        0.00
  Node_04623           JUNCTION     1.14     2.00   101.67     0  02:27        0.00
  Node_04624           JUNCTION     1.29     2.25   101.71     0  02:20        0.00
  Node_04643           JUNCTION     1.02     1.87   101.77     0  02:20        0.00
  Node_04644           JUNCTION     1.05     1.87   101.71     0  02:37        0.00
  Node_04645           JUNCTION     1.26     2.05   101.65     0  02:20        0.00
  Node_04678           JUNCTION     1.11     1.98   101.71     0  02:20        0.00
  Node_04679           JUNCTION     0.80     1.48   101.67     0  02:27        0.00
  Node_04680           JUNCTION     2.60     3.86   101.63     0  02:26        0.00
  Node_04681           JUNCTION     2.63     3.88   101.60     0  02:26        0.00
  Node_04682           JUNCTION     0.36     0.93   101.94     0  02:20        0.00
  Node_04710           JUNCTION     0.81     1.89   101.88     0  02:17        0.00
  Node_04711           JUNCTION     0.82     1.94   101.93     0  02:17        0.00
  Node_04712           JUNCTION     0.81     2.61   102.62     0  02:17        0.00
  Node_04713           JUNCTION     0.77     2.04   102.09     0  02:17        0.00
  Node_04714           JUNCTION     0.78     2.60   102.65     0  02:18        0.00
  Node_04715           JUNCTION     0.75     2.52   102.61     0  02:17        0.00
  Node_04716           JUNCTION     0.73     2.16   102.29     0  02:18        0.00
  Node_04717           JUNCTION     0.63     1.45   101.75     0  02:18        0.00
  Node_04721           JUNCTION     0.80     1.59   101.94     0  02:20        0.00
  Node_04759           JUNCTION     0.89     1.71   101.89     0  02:21        0.00
  Node_04760           JUNCTION     1.25     2.04   101.50     0  02:26        0.00
  Node_04764           JUNCTION     1.00     1.59   101.51     0  02:19        0.00
  Node_04765           JUNCTION     0.70     1.39   101.81     0  02:20        0.00
  Node_04766           JUNCTION     1.19     2.19   101.96     0  02:21        0.00
  Node_04767           JUNCTION     1.15     2.20   102.03     0  02:21        0.00
  Node_04768           JUNCTION     1.25     2.33   101.99     0  02:21        0.00
  Node_04854           JUNCTION     0.64     1.26   101.70     0  02:26        0.00
  Node_04855           JUNCTION     1.22     2.01   101.93     0  02:21        0.00
  Node_05283           JUNCTION     2.22     3.61   102.23     0  02:59        0.00
  Node_05284           JUNCTION     2.19     3.57   102.23     0  02:58        0.00
  Node_05285           JUNCTION     2.12     3.47   102.22     0  02:15        0.00
  Node_05286           JUNCTION     2.09     3.42   102.22     0  02:15        0.00
  Node_05287           JUNCTION     2.05     3.40   102.26     0  02:57        0.00
  Node_05288           JUNCTION     2.04     3.39   102.26     0  03:05        0.00
  Node_05289           JUNCTION     1.54     2.70   102.22     0  02:15        0.00
  Node_05290           JUNCTION     2.03     3.38   102.27     0  03:08        0.00
  Node_05291           JUNCTION     1.81     3.11   102.31     0  02:15        0.00
  Node_05292           JUNCTION     1.77     3.07   102.31     0  02:16        0.00
  Node_05293           JUNCTION     1.76     3.06   102.31     0  02:15        0.00
  Node_05294           JUNCTION     1.72     3.01   102.32     0  02:15        0.00
  Node_05295           JUNCTION     1.76     3.05   102.32     0  02:15        0.00
  Node_05296           JUNCTION     1.73     3.01   102.33     0  02:15        0.00
  Node_05297           JUNCTION     1.56     2.75   102.26     0  02:39        0.00
  Node_05298           JUNCTION     1.68     2.93   102.32     0  02:15        0.00
  Node_05299           JUNCTION     1.67     2.92   102.32     0  02:15        0.00
  Node_05300           JUNCTION     1.64     2.87   102.32     0  02:15        0.00
  Node_05301           JUNCTION     1.60     2.83   102.32     0  02:37        0.00
  Node_05302           JUNCTION     1.60     2.82   102.32     0  02:36        0.00
  Node_05303           JUNCTION     1.56     2.78   102.32     0  02:27        0.00
[...]
  Link_02139                  0.01      0.01      0.01      1.00         0.01
  Link_02383                  3.89      3.89      3.94      0.01         0.01
  Link_02384                  3.94      3.94      3.95      0.01         0.01
  Link_02385                  3.95      3.95      3.95      0.01         0.19
  Link_02386                  3.76      3.76      3.76      0.01         0.01
  Link_02387                  3.95      3.95      3.98      0.01         0.01
  Link_02388                  3.98      3.98      4.00      0.01         0.01
  Link_02389                  3.79      3.79      3.94      0.01         0.01
  Link_02390                  4.00      4.00      4.01      0.01         0.01
  Link_02391                  4.01      4.01      4.12      0.01         0.01
  Link_02392                  3.79      3.79      3.84      0.01         0.01
  Link_02393                  4.13      4.13      4.15      0.01         0.02
  Link_05459                  3.68      3.68      3.70      0.03         0.01
  Link_05460                  3.79      3.79      3.82      0.01         0.01
  Link_05461                  3.94      3.94      3.96      0.01         0.03
  Link_05462                  4.03      4.03      4.05      0.01         0.01
  Link_05463                  4.14      4.14      4.17      0.01         0.01
  Link_05464                  4.34      4.34      4.35      0.01         1.59
  Link_05496                  5.23      5.23      5.26      0.03         0.03
  Link_05662                  3.62      3.62      3.62      0.01         0.02
  Link_05663                  3.68      3.68      3.76      0.01         0.01
  Link_05664                  4.63      4.63      4.67      0.01         0.01
  Link_05665                  5.21      5.26      5.22      2.94         2.58
  Link_05677                  4.67      4.67      4.71      0.33         0.46
  Link_05678                  2.43      2.43      2.47      0.01         0.01
  Link_05720                  4.79      4.79      4.84      0.02         0.05
  Link_05721                  4.56      4.56      4.60      0.01         0.01
  Link_05722                  3.82      3.82      3.85      0.01         0.01
  Link_05726                  4.21      4.21      4.26      0.01         0.01
  Link_05727                  4.21      4.21      4.22      0.01         0.06
  Link_05728                  4.00      4.00      4.02      0.01         0.01
  Link_05729                  3.82      3.82      3.82      0.01         0.72
  Link_05742                  3.77      3.77      3.77      0.01         0.01
  Link_05743                  4.15      4.15      4.17      0.01         0.01
  Link_05744                  4.46      4.46      4.60      0.01         0.01
  Link_05752                  3.75      3.75      3.75      1.67         0.02
  Link_05812                  4.17      4.17      4.26      0.01         0.01
  Link_05813                  4.06      4.06      4.08      0.01         0.01
  Link_05814                  4.00      4.00      4.01      0.01         0.01
  Link_05815                  3.96      3.96      3.98      0.01         0.01
  Link_05983                  3.73      3.73      3.73      0.01         0.01
  Link_05984                  3.67      3.67      3.68      0.01         0.01
  Link_07220                  3.63      3.63      3.65      0.01         0.01
  Link_07221                  3.65      3.65      3.65      0.01         0.82
  Link_07222                  3.65      3.65      3.66      0.01         0.01
  Link_07230                  3.66      3.66      3.67      0.01         0.01
  Link_07231                  3.67      3.67      3.67      0.01         0.01
  Link_07233                  3.73      3.73      3.75      1.07         1.11
  Link_07234                  3.77      3.77      3.77      2.69         2.22
  Link_07235                  3.73      3.73      3.75      0.79         0.55
  Link_07270                  1.41      1.41      3.20      0.01         0.01
  Link_07271                  3.21      3.21      3.62      0.01         0.01
  Link_07274                  1.84      1.84      1.89      0.01         0.01
  Link_07277                  3.62      3.62      3.62      0.01         0.01
  Link_07278                  3.62      3.62      3.62      0.01         0.01
  Link_07295                  3.62      3.62      3.63      0.01         0.01
  Link_07296                  3.63      3.63      3.63      0.01         0.01
  Link_07297                  3.63      3.63      3.63      0.01         0.01
  Link_07303                  3.63      3.63      3.63      0.01         0.45
  Link_07306                  3.62      3.62      3.62      0.01         0.01
  Link_07464                  4.07      4.07      4.07      0.01         0.01
  Link_07578                  3.76      3.76      3.76      0.01         0.01
  Link_07579                  3.79      3.79      3.81      0.01         0.01
  Link_07580                  3.78      3.78      3.79      0.01         0.01
  Link_07687                  4.18      4.18      4.18      0.01         0.01
  Link_08891                  3.71      3.71      3.75      0.01         0.01
  Link_08912                  3.79      3.79      3.93      0.01         0.01
  Link1_to_ChengXi            5.38      5.38      5.52      0.01         0.01
  Link2_to_ChengXi            5.27      5.51      5.35      2.88         2.55
  Link3_to_ChengXi            3.78      3.78      3.90      0.01         0.01
  
  
  ***************
  Pumping Summary
  ***************
  
  ---------------------------------------------------------------------------------------------------------
                                                  Min       Avg       Max     Total     Power    % Time Off
                        Percent   Number of      Flow      Flow      Flow    Volume     Usage    Pump Curve
  Pump                 Utilized   Start-Ups       CMS       CMS       CMS  10^6 ltr     Kw-hr    Low   High
  ---------------------------------------------------------------------------------------------------------
  Pump_ChengXi1            0.00           0      0.00      0.00      0.00     0.000      0.00    0.0    0.0
  Pump_ChengXi2            0.00           0      0.00      0.00      0.00     0.000      0.00    0.0    0.0
  Pump_ChengXi3            0.00           0      0.00      0.00      0.00     0.000      0.00    0.0    0.0
  Pump_ChengXi4            0.00           0      0.00      0.00      0.00     0.000      0.00    0.0    0.0
  Pump_LaoDongLu1        100.00           0      0.00      0.03      0.03     0.600      8.96    0.0    0.0
  Pump_LaoDongLu2          0.00           0      0.00      0.00      0.00     0.000      0.00    0.0    0.0
  Pump_LaoDongLu3          0.00           0      0.00      0.00      0.00     0.000      0.00    0.0    0.0
  outfallpump              0.00           0      0.00      0.00      0.00     0.000      0.00    0.0    0.0
  
  
  ***************************
  Link Pollutant Load Summary
  ***************************
  
  ----------------------------------
                                 COD
  Link                            kg
  ----------------------------------
  Link_01146                  24.587
  Link_01147                  30.452
  Link_01148                  36.308
  Link_01149                  42.160
  Link_01150                  48.134
  Link_01151                  50.559
  Link_01152                  50.831
  Link_01274                   8.237
  Link_01275                  15.003
  Link_01276                  36.880
  Link_01292                  15.269
  Link_01294                  49.295
  Link_01295                  55.336
  Link_01296                  61.402
  Link_01297                  78.103
  Link_01298                   8.177
  Link_01299                  91.482
  Link_01300                  96.458
  Link_01301                 101.675
  Link_01302                   8.482
  Link_01312                  11.603
  Link_01313                 152.357
  Link_01314                 158.632
  Link_01315                 164.635
  Link_01316                 170.792
  Link_01317                 177.109
  Link_01318                 183.594
  Link_01319                 190.204
  Link_01320                 223.478
  Link_01323                 154.455
  Link_01324                   9.907
  Link_01325                 168.476
  Link_01326                 174.119
  Link_01327                 120.238
  Link_01328                   9.189
  Link_01329                 132.405
  Link_01330                 137.335
  Link_01331                 143.295
  Link_01332                 118.889
  Link_01333                   9.785
  Link_01334                 131.631
  Link_01335                  12.273
  Link_01336                 145.633
  Link_01337                  96.010
  Link_01338                   9.820
  Link_01339                  84.574
  Link_01340                   9.615
  Link_01341                  84.300
  Link_01342                   9.627
  Link_01343                  93.347
  Link_01344                  18.277
  Link_01345                 104.274
  Link_01346                 109.711
  Link_01347                  12.051
  Link_01348                 118.256
  Link_01349                  18.452
  Link_01350                 122.814
  Link_01351                  10.608
  Link_01352                 131.409
  Link_01556                  13.298
  Link_01557                  27.682
  Link_01558                 431.486
  Link_01559                  30.885
  Link_01560                 427.417
  Link_01561                 444.494
  Link_01562                 445.588
  Link_01563                 447.887
  Link_01564                   7.134
  Link_01565                 111.693
  Link_01566                   9.971
  Link_01567                  10.050
  Link_01568                 123.338
  Link_01569                  12.960
  Link_01570                 133.341
  Link_01571                 129.801
  Link_01572                 146.566
  Link_01573                  85.323
  Link_01574                  79.569
  Link_01575                  11.112
  Link_01576                  64.535
  Link_01577                  48.026
  Link_01578                  42.224
  Link_01579                   9.874
  Link_01580                   5.460
  Link_01581                   7.405
  Link_01582                   5.452
  Link_01731                  10.742
  Link_01732                  18.993
  Link_01733                  27.495
  Link_01734                   9.668
  Link_01735                   8.787
  Link_01751                  61.264
  Link_01752                  68.158
  Link_01753                  83.927
  Link_01754                  90.768
  Link_01755                  98.023
  Link_01756                   8.112
  Link_01757                 114.821
  Link_01758                   9.605
  Link_01759                   9.523
  Link_01760                 137.911
  Link_01761                 145.407
  Link_01762                 153.061
  Link_01763                   8.043
  Link_01764                 168.021
  Link_01765                 182.245
  Link_01766                 188.594
  Link_01767                 577.289
  Link_01768                 573.292
  Link_01769                 572.831
  Link_01770                 565.496
  Link_01771                 561.086
  Link_01772                  22.426
  Link_01773                 549.300
  Link_01774                  29.466
  Link_01775                  72.055
  Link_01776                  64.320
  Link_01777                  59.189
  Link_01778                  58.264
  Link_01779                  44.324
  Link_01780                  45.377
  Link_01781                  32.181
  Link_01782                 534.487
  Link_01783                   9.519
  Link_01784                 525.076
  Link_01785                 520.834
  Link_01786                  58.896
  Link_01787                  31.266
  Link_01788                 500.535
  Link_01789                 495.463
  Link_01790                  15.828
  Link_01791                  13.993
  Link_01792                  11.679
  Link_01793                 477.360
  Link_01794                 471.770
  Link_01795                 466.534
  Link_01796                 460.511
  Link_01797                 454.160
  Link_01798                 546.901
  Link_01799                 544.132
  Link_01800                 549.578
  Link_01801                 425.927
  Link_01802                 516.854
  Link_01803                 538.497
  Link_01804                 426.932
  Link_01805                 420.198
  Link_01806                 415.260
  Link_01807                 409.993
  Link_01808                  13.501
  Link_01809                 399.862
  Link_01810                 392.300
  Link_01811                   6.577
  Link_01812                  49.559
  Link_01813                  42.854
  Link_01814                 378.331
  Link_01815                 374.209
  Link_01816                 364.058
  Link_01817                   8.152
  Link_01818                 342.540
  Link_01819                 331.210
  Link_01820                  11.139
  Link_01821                  23.456
  Link_01822                   5.455
  Link_01823                 168.438
  Link_01824                 166.132
  Link_01825                  47.890
  Link_01826                  49.933
  Link_01827                   1.900
  Link_01828                  53.920
  Link_01829                   5.449
  Link_01830                  61.528
  Link_01831                   1.899
  Link_01832                  65.535
  Link_01833                  67.592
  Link_01834                  71.718
  Link_01835                   1.899
  Link_01836                  37.319
  Link_01837                  19.769
  Link_01838                  25.892
  Link_01839                  35.176
  Link_01840                  33.211
  Link_01841                  31.273
  Link_01842                  25.665
  Link_01843                  21.710
  Link_01844                  19.761
  Link_02074                  10.116
  Link_02075                 111.085
  Link_02076                 124.661
  Link_02077                  16.735
  Link_02078                 142.415
  Link_02079                  11.468
  Link_02080                 156.439
  Link_02081                 161.515
  Link_02082                 166.454
  Link_02083                  11.468
  Link_02084                   9.739
  Link_02085                 293.207
  Link_02086                 303.596
  Link_02087                 312.422
  Link_02088                 319.905
  Link_02089                 327.328
  Link_02090                 398.686
  Link_02091                 394.581
  Link_02092                 390.359
  Link_02093                   9.555
  Link_02094                 375.336
  Link_02095                 372.157
  Link_02096                 382.699
  Link_02097                  16.300
  Link_02098                  54.447
  Link_02099                 378.645
  Link_02100                 374.113
  Link_02101                  14.797
  Link_02102                 347.708
  Link_02103                 327.063
  Link_02104                  19.613
  Link_02105                 263.515
  Link_02106                  13.045
  Link_02107                   6.702
  Link_02108                 252.026
  Link_02109                 247.115
  Link_02110                 244.678
  Link_02111                 161.928
  Link_02112                  14.716
  Link_02113                 119.705
  Link_02114                  32.252
  Link_02115                  30.209
  Link_02116                  28.246
  Link_02117                  26.321
  Link_02118                  24.376
  Link_02123                   5.446
  Link_02124                   7.375
  Link_02125                   9.310
  Link_02126                  11.224
  Link_02127                  22.441
  Link_02128                  20.496
  Link_02129                  18.580
  Link_02130                  16.659
  Link_02131                  14.703
  Link_02132                  12.740
  Link_02133                  10.778
  Link_02134                 121.778
  Link_02135                 123.799
  Link_02136                 131.308
  Link_02137                   5.445
  Link_02138                 149.022
  Link_02139                 146.962
  Link_02140                 144.841
  Link_02141                 142.831
  Link_02142                 140.751
  Link_02143                 133.315
  Link_02383                   6.594
  Link_02384                  13.220
  Link_02385                  20.093
  Link_02386                  23.773
  Link_02387                  47.243
  Link_02388                  52.666
  Link_02389                  24.107
  Link_02390                  58.582
  Link_02391                  85.903
  Link_02392                  28.798
  Link_02393                 116.032
  Link_05459                  53.941
  Link_05460                 130.517
  Link_05461                 174.803
  Link_05462                 540.559
  Link_05463                 483.545
  Link_05464                  38.673
  Link_05496                 424.308
  Link_05662                  43.178
  Link_05663                   7.827
  Link_05664                  47.963
  Link_05665                 229.970
  Link_05677                 133.055
  Link_05678                  16.930
  Link_05720                 511.976
  Link_05721                 389.756
  Link_05722                  14.489
  Link_05723                  85.360
  Link_05725                  13.180
  Link_05726                 285.788
  Link_05727                   8.044
  Link_05728                 378.664
  Link_05729                 353.797
  Link_05730                 242.525
  Link_05731                 163.896
  Link_05732                 159.939
  Link_05742                  22.795
  Link_05743                  87.340
  Link_05744                 172.048
  Link_05752                 279.358
  Link_05753                   3.681
  Link_05754                  23.678
  Link_05791                   5.445
  Link_05812                 150.502
  Link_05813                  99.112
  Link_05814                 102.636
  Link_05815                 128.231
  Link_05816                  16.732
  Link_05817                  24.234
  Link_05818                  10.790
  Link_05983                  24.621
  Link_05984                  18.555
  Link_06039                   1.883
  Link_07220                  83.855
  Link_07221                  91.979
  Link_07222                  70.524
  Link_07230                  74.982
  Link_07231                  79.004
  Link_07233                 198.488
  Link_07234                 204.120
  Link_07235                 122.038
  Link_07270                  24.678
  Link_07271                  31.061
  Link_07274                  14.986
  Link_07277                  37.463
  Link_07278                  44.117
  Link_07295                  49.921
  Link_07296                  55.808
  Link_07297                  77.602
  Link_07303                  10.175
  Link_07306                  44.962
  Link_07321                  10.776
  Link_07464                  20.026
  Link_07578                  24.168
  Link_07579                 320.551
  Link_07580                 289.750
  Link_07687                  18.498
  Link_07865                  10.769
  Link_08891                  11.273
  Link_08912                  32.223
  Link1_to_ChengXi           451.351
  Link2_to_ChengXi           239.714
  Link3_to_ChengXi           208.968
  Link_to_LaoDongLu          246.741
  Pump_ChengXi1                0.000
  Pump_ChengXi2                0.000
  Pump_ChengXi3                0.000
  Pump_ChengXi4                0.000
  Pump_LaoDongLu1            241.422
  Pump_LaoDongLu2              0.000
  Pump_LaoDongLu3              0.000
  outfallpump                  0.000
  

  Analysis begun on:  Sun Sep  5 11:33:35 2021
  Analysis ended on:  Sun Sep  5 11:33:37 2021
  Total elapsed time: 00:00:02